2D_structures\o10_MMV000059_2D.pdb
 OpenBabel02252417213D

 47 49  0  0  0  0  0  0  0  0999 V2000
   -0.1320   -0.4160    0.0000 O   0  0  0  0  0  0  0  0  0  0  0  0
   -1.2120   -1.4570    0.0000 C   0  0  0  0  0  0  0  0  0  0  0  0
   -0.5560   -2.8060    0.0000 C   0  0  0  0  0  0  0  0  0  0  0  0
    0.9300   -2.5990    0.0000 C   0  0  0  0  0  0  0  0  0  0  0  0
    1.1920   -1.1220    0.0000 C   0  0  0  0  0  0  0  0  0  0  0  0
    2.5410   -0.4660    0.0000 C   0  0  0  0  0  0  0  0  0  0  0  0
    3.7830   -1.3060    0.0000 C   0  0  0  0  0  0  0  0  0  0  0  0
    5.1320   -0.6500    0.0000 C   0  0  0  0  0  0  0  0  0  0  0  0
    5.2390    0.8460    0.0000 C   0  0  0  0  0  0  0  0  0  0  0  0
    6.5880    1.5020    0.0000 C   0  0  0  0  0  0  0  0  0  0  0  0
    6.6940    2.9980    0.0000 N   0  0  0  0  0  0  0  0  0  0  0  0
    7.8300    0.6610    0.0000 N   0  0  0  0  0  0  0  0  0  0  0  0
    9.1790    1.3170    0.0000 O   0  0  0  0  0  0  0  0  0  0  0  0
   10.4220    0.4770    0.0000 C   0  0  0  0  0  0  0  0  0  0  0  0
    3.9960    1.6860    0.0000 C   0  0  0  0  0  0  0  0  0  0  0  0
    2.6470    1.0300    0.0000 C   0  0  0  0  0  0  0  0  0  0  0  0
   -2.6890   -1.1950    0.0000 C   0  0  0  0  0  0  0  0  0  0  0  0
   -3.2000    0.2160    0.0000 C   0  0  0  0  0  0  0  0  0  0  0  0
   -4.6770    0.4780    0.0000 C   0  0  0  0  0  0  0  0  0  0  0  0
   -5.6430   -0.6700    0.0000 C   0  0  0  0  0  0  0  0  0  0  0  0
   -7.1200   -0.4080    0.0000 C   0  0  0  0  0  0  0  0  0  0  0  0
   -8.0850   -1.5560    0.0000 N   0  0  0  0  0  0  0  0  0  0  0  0
   -7.6310    1.0020    0.0000 N   0  0  0  0  0  0  0  0  0  0  0  0
   -9.1080    1.2650    0.0000 O   0  0  0  0  0  0  0  0  0  0  0  0
   -9.6190    2.6750    0.0000 C   0  0  0  0  0  0  0  0  0  0  0  0
   -5.1310   -2.0800    0.0000 C   0  0  0  0  0  0  0  0  0  0  0  0
   -3.6540   -2.3430    0.0000 C   0  0  0  0  0  0  0  0  0  0  0  0
   -1.2620   -4.1290    0.0000 H   0  0  0  0  0  0  0  0  0  0  0  0
    1.9700   -3.6790    0.0000 H   0  0  0  0  0  0  0  0  0  0  0  0
    3.6770   -2.8030    0.0000 H   0  0  0  0  0  0  0  0  0  0  0  0
    6.3750   -1.4910    0.0000 H   0  0  0  0  0  0  0  0  0  0  0  0
    8.0430    3.6540    0.0000 H   0  0  0  0  0  0  0  0  0  0  0  0
    7.7240   -0.8350    0.0000 H   0  0  0  0  0  0  0  0  0  0  0  0
   11.6640   -0.3630    0.0000 H   0  0  0  0  0  0  0  0  0  0  0  0
   11.2620    1.7200    0.0000 H   0  0  0  0  0  0  0  0  0  0  0  0
    9.5820   -0.7660    0.0000 H   0  0  0  0  0  0  0  0  0  0  0  0
    4.1030    3.1820    0.0000 H   0  0  0  0  0  0  0  0  0  0  0  0
    1.4050    1.8700    0.0000 H   0  0  0  0  0  0  0  0  0  0  0  0
   -2.2350    1.3630    0.0000 H   0  0  0  0  0  0  0  0  0  0  0  0
   -5.1880    1.8880    0.0000 H   0  0  0  0  0  0  0  0  0  0  0  0
   -9.5620   -1.2930    0.0000 H   0  0  0  0  0  0  0  0  0  0  0  0
   -6.6650    2.1500    0.0000 H   0  0  0  0  0  0  0  0  0  0  0  0
  -10.1300    4.0850    0.0000 H   0  0  0  0  0  0  0  0  0  0  0  0
  -11.0290    2.1630    0.0000 H   0  0  0  0  0  0  0  0  0  0  0  0
   -8.2090    3.1860    0.0000 H   0  0  0  0  0  0  0  0  0  0  0  0
   -6.0970   -3.2280    0.0000 H   0  0  0  0  0  0  0  0  0  0  0  0
   -3.1430   -3.7530    0.0000 H   0  0  0  0  0  0  0  0  0  0  0  0
  1  2  1  0  0  0  0
  1  5  1  0  0  0  0
  2  3  2  0  0  0  0
  2 17  1  0  0  0  0
  3  4  1  0  0  0  0
  3 28  1  0  0  0  0
  4  5  2  0  0  0  0
  4 29  1  0  0  0  0
  5  6  1  0  0  0  0
  6  7  2  0  0  0  0
  6 16  1  0  0  0  0
  7  8  1  0  0  0  0
  7 30  1  0  0  0  0
  8  9  2  0  0  0  0
  8 31  1  0  0  0  0
  9 10  1  0  0  0  0
  9 15  1  0  0  0  0
 10 11  2  0  0  0  0
 10 12  1  0  0  0  0
 11 32  1  0  0  0  0
 12 13  1  0  0  0  0
 12 33  1  0  0  0  0
 13 14  1  0  0  0  0
 14 34  1  0  0  0  0
 14 35  1  0  0  0  0
 14 36  1  0  0  0  0
 15 16  2  0  0  0  0
 15 37  1  0  0  0  0
 16 38  1  0  0  0  0
 17 18  2  0  0  0  0
 17 27  1  0  0  0  0
 18 19  1  0  0  0  0
 18 39  1  0  0  0  0
 19 20  2  0  0  0  0
 19 40  1  0  0  0  0
 20 21  1  0  0  0  0
 20 26  1  0  0  0  0
 21 22  2  0  0  0  0
 21 23  1  0  0  0  0
 22 41  1  0  0  0  0
 23 24  1  0  0  0  0
 23 42  1  0  0  0  0
 24 25  1  0  0  0  0
 25 43  1  0  0  0  0
 25 44  1  0  0  0  0
 25 45  1  0  0  0  0
 26 27  2  0  0  0  0
 26 46  1  0  0  0  0
 27 47  1  0  0  0  0
M  END
$$$$
