2D_structures\o11_MMV637104_2D.pdb
 OpenBabel02252417213D

 51 53  0  0  0  0  0  0  0  0999 V2000
    1.6710   -2.4160    0.0000 N   0  0  0  0  0  0  0  0  0  0  0  0
    2.8890   -1.5400    0.0000 C   0  0  0  0  0  0  0  0  0  0  0  0
    4.1070   -0.6640    0.0000 C   0  0  0  0  0  0  0  0  0  0  0  0
    5.4740   -1.2810    0.0000 C   0  0  0  0  0  0  0  0  0  0  0  0
    6.6920   -0.4050    0.0000 C   0  0  0  0  0  0  0  0  0  0  0  0
    6.5420    1.0880    0.0000 C   0  0  0  0  0  0  0  0  0  0  0  0
    5.1750    1.7050    0.0000 C   0  0  0  0  0  0  0  0  0  0  0  0
    5.0250    3.1970    0.0000 C   0  0  0  0  0  0  0  0  0  0  0  0
    3.6580    3.8140    0.0000 C   0  0  0  0  0  0  0  0  0  0  0  0
    2.4400    2.9380    0.0000 C   0  0  0  0  0  0  0  0  0  0  0  0
    2.5900    1.4450    0.0000 C   0  0  0  0  0  0  0  0  0  0  0  0
    3.9570    0.8290    0.0000 C   0  0  0  0  0  0  0  0  0  0  0  0
    0.3040   -1.7990    0.0000 C   0  0  0  0  0  0  0  0  0  0  0  0
   -1.0630   -1.1820    0.0000 C   0  0  0  0  0  0  0  0  0  0  0  0
   -1.2130    0.3100    0.0000 C   0  0  0  0  0  0  0  0  0  0  0  0
   -2.5800    0.9270    0.0000 C   0  0  0  0  0  0  0  0  0  0  0  0
   -3.7980    0.0510    0.0000 C   0  0  0  0  0  0  0  0  0  0  0  0
   -5.1660    0.6680    0.0000 C   0  0  0  0  0  0  0  0  0  0  0  0
   -6.5330    1.2840    0.0000 C   0  0  0  0  0  0  0  0  0  0  0  0
   -5.7820   -0.7000    0.0000 C   0  0  0  0  0  0  0  0  0  0  0  0
   -4.5490    2.0350    0.0000 C   0  0  0  0  0  0  0  0  0  0  0  0
   -3.6480   -1.4420    0.0000 C   0  0  0  0  0  0  0  0  0  0  0  0
   -2.2810   -2.0580    0.0000 C   0  0  0  0  0  0  0  0  0  0  0  0
    1.8210   -3.9080    0.0000 C   0  0  0  0  0  0  0  0  0  0  0  0
    3.7650   -2.7570    0.0000 H   0  0  0  0  0  0  0  0  0  0  0  0
    2.0130   -0.3220    0.0000 H   0  0  0  0  0  0  0  0  0  0  0  0
    5.6240   -2.7730    0.0000 H   0  0  0  0  0  0  0  0  0  0  0  0
    8.0590   -1.0210    0.0000 H   0  0  0  0  0  0  0  0  0  0  0  0
    7.7600    1.9640    0.0000 H   0  0  0  0  0  0  0  0  0  0  0  0
    6.2430    4.0730    0.0000 H   0  0  0  0  0  0  0  0  0  0  0  0
    3.5080    5.3060    0.0000 H   0  0  0  0  0  0  0  0  0  0  0  0
    1.0730    3.5540    0.0000 H   0  0  0  0  0  0  0  0  0  0  0  0
    1.3720    0.5690    0.0000 H   0  0  0  0  0  0  0  0  0  0  0  0
    0.9210   -0.4320    0.0000 H   0  0  0  0  0  0  0  0  0  0  0  0
   -0.3130   -3.1660    0.0000 H   0  0  0  0  0  0  0  0  0  0  0  0
    0.0050    1.1860    0.0000 H   0  0  0  0  0  0  0  0  0  0  0  0
   -2.6690    1.8080    0.0000 H   0  0  0  0  0  0  0  0  0  0  0  0
   -7.9000    1.9010    0.0000 H   0  0  0  0  0  0  0  0  0  0  0  0
   -6.2700    2.1300    0.0000 H   0  0  0  0  0  0  0  0  0  0  0  0
   -6.9930    0.5270    0.0000 H   0  0  0  0  0  0  0  0  0  0  0  0
   -6.3990   -2.0670    0.0000 H   0  0  0  0  0  0  0  0  0  0  0  0
   -6.6280   -0.4370    0.0000 H   0  0  0  0  0  0  0  0  0  0  0  0
   -4.6050   -1.6290    0.0000 H   0  0  0  0  0  0  0  0  0  0  0  0
   -3.9320    3.4020    0.0000 H   0  0  0  0  0  0  0  0  0  0  0  0
   -5.3060    2.4950    0.0000 H   0  0  0  0  0  0  0  0  0  0  0  0
   -3.6770    1.8770    0.0000 H   0  0  0  0  0  0  0  0  0  0  0  0
   -4.8660   -2.3170    0.0000 H   0  0  0  0  0  0  0  0  0  0  0  0
   -2.1310   -3.5510    0.0000 H   0  0  0  0  0  0  0  0  0  0  0  0
    1.9710   -5.4010    0.0000 H   0  0  0  0  0  0  0  0  0  0  0  0
    0.3290   -4.0580    0.0000 H   0  0  0  0  0  0  0  0  0  0  0  0
    3.3140   -3.7580    0.0000 H   0  0  0  0  0  0  0  0  0  0  0  0
  1  2  1  0  0  0  0
  1 13  1  0  0  0  0
  1 24  1  0  0  0  0
  2  3  1  0  0  0  0
  2 25  1  0  0  0  0
  2 26  1  0  0  0  0
  3  4  2  0  0  0  0
  3 12  1  0  0  0  0
  4  5  1  0  0  0  0
  4 27  1  0  0  0  0
  5  6  2  0  0  0  0
  5 28  1  0  0  0  0
  6  7  1  0  0  0  0
  6 29  1  0  0  0  0
  7  8  2  0  0  0  0
  7 12  1  0  0  0  0
  8  9  1  0  0  0  0
  8 30  1  0  0  0  0
  9 10  2  0  0  0  0
  9 31  1  0  0  0  0
 10 11  1  0  0  0  0
 10 32  1  0  0  0  0
 11 12  2  0  0  0  0
 11 33  1  0  0  0  0
 13 14  1  0  0  0  0
 13 34  1  0  0  0  0
 13 35  1  0  0  0  0
 14 15  2  0  0  0  0
 14 23  1  0  0  0  0
 15 16  1  0  0  0  0
 15 36  1  0  0  0  0
 16 17  2  0  0  0  0
 16 37  1  0  0  0  0
 17 18  1  0  0  0  0
 17 22  1  0  0  0  0
 18 19  1  0  0  0  0
 18 20  1  0  0  0  0
 18 21  1  0  0  0  0
 19 38  1  0  0  0  0
 19 39  1  0  0  0  0
 19 40  1  0  0  0  0
 20 41  1  0  0  0  0
 20 42  1  0  0  0  0
 20 43  1  0  0  0  0
 21 44  1  0  0  0  0
 21 45  1  0  0  0  0
 21 46  1  0  0  0  0
 22 23  2  0  0  0  0
 22 47  1  0  0  0  0
 23 48  1  0  0  0  0
 24 49  1  0  0  0  0
 24 50  1  0  0  0  0
 24 51  1  0  0  0  0
M  END
$$$$
