2D_structures\o13_MMV1634362_2D.pdb
 OpenBabel02252417213D

 48 51  0  0  1  0  0  0  0  0999 V2000
    1.2230    1.6800    0.0000 S   0  0  0  0  0  0  0  0  0  0  0  0
    0.8560    0.2260    0.0000 C   0  0  0  0  0  0  0  0  0  0  0  0
    2.1260   -0.5730    0.0000 N   0  0  0  0  0  0  0  0  0  0  0  0
    3.2780    0.3890    0.0000 C   0  0  0  0  0  0  0  0  0  0  0  0
    2.7190    1.7810    0.0000 C   0  0  0  0  0  0  0  0  0  0  0  0
    4.7320    0.0220    0.0000 C   0  0  0  0  0  0  0  0  0  0  0  0
    5.1420   -1.4210    0.0000 C   0  0  0  0  0  0  0  0  0  0  0  0
    6.5960   -1.7880    0.0000 C   0  0  0  0  0  0  0  0  0  0  0  0
    7.6410   -0.7120    0.0000 C   0  0  0  0  0  0  0  0  0  0  0  0
    9.0950   -1.0790    0.0000 C   0  0  0  0  0  0  0  0  0  0  0  0
   10.5500   -1.4450    0.0000 N   0  0  0  0  0  0  0  0  0  0  0  0
    7.2310    0.7310    0.0000 C   0  0  0  0  0  0  0  0  0  0  0  0
    5.7770    1.0980    0.0000 C   0  0  0  0  0  0  0  0  0  0  0  0
   -0.5360   -0.3320    0.0000 C   0  0  1  0  0  0  0  0  0  0  0  0
   -1.9290   -0.8910    0.0000 C   0  0  1  0  0  0  0  0  0  0  0  0
   -1.3700   -2.2830    0.0000 O   0  0  0  0  0  0  0  0  0  0  0  0
   -3.3210   -1.4490    0.0000 C   0  0  0  0  0  0  0  0  0  0  0  0
   -4.5000   -0.5220    0.0000 C   0  0  0  0  0  0  0  0  0  0  0  0
   -4.3750    0.3550    0.0000 F   0  0  0  0  0  0  0  0  0  0  0  0
   -5.8930   -1.0800    0.0000 C   0  0  0  0  0  0  0  0  0  0  0  0
   -6.1050   -2.5650    0.0000 C   0  0  0  0  0  0  0  0  0  0  0  0
   -7.4980   -3.1230    0.0000 F   0  0  0  0  0  0  0  0  0  0  0  0
   -4.9260   -3.4920    0.0000 C   0  0  0  0  0  0  0  0  0  0  0  0
   -3.5340   -2.9340    0.0000 C   0  0  0  0  0  0  0  0  0  0  0  0
   -2.4870    0.5020    0.0000 C   0  0  0  0  0  0  0  0  0  0  0  0
   -3.0450    1.8940    0.0000 N   0  0  0  0  0  0  0  0  0  0  0  0
   -4.4990    2.2610    0.0000 N   0  0  0  0  0  0  0  0  0  0  0  0
   -4.6000    3.7570    0.0000 C   0  0  0  0  0  0  0  0  0  0  0  0
   -3.2080    4.3160    0.0000 N   0  0  0  0  0  0  0  0  0  0  0  0
   -2.2470    3.1640    0.0000 C   0  0  0  0  0  0  0  0  0  0  0  0
   -1.0950    1.0600    0.0000 C   0  0  0  0  0  0  0  0  0  0  0  0
    3.5180    3.0510    0.0000 H   0  0  0  0  0  0  0  0  0  0  0  0
    4.0970   -2.4970    0.0000 H   0  0  0  0  0  0  0  0  0  0  0  0
    7.0060   -3.2310    0.0000 H   0  0  0  0  0  0  0  0  0  0  0  0
    8.2760    1.8070    0.0000 H   0  0  0  0  0  0  0  0  0  0  0  0
    5.3670    2.5410    0.0000 H   0  0  0  0  0  0  0  0  0  0  0  0
    0.1870   -1.6460    0.0000 H   0  0  0  0  0  0  0  0  0  0  0  0
    0.0770   -2.6750    0.0000 H   0  0  0  0  0  0  0  0  0  0  0  0
   -7.0720   -0.1540    0.0000 H   0  0  0  0  0  0  0  0  0  0  0  0
   -5.1390   -4.9770    0.0000 H   0  0  0  0  0  0  0  0  0  0  0  0
   -2.3540   -3.8600    0.0000 H   0  0  0  0  0  0  0  0  0  0  0  0
   -3.3640    0.3810    0.0000 H   0  0  0  0  0  0  0  0  0  0  0  0
   -1.8410    0.9690    0.0000 H   0  0  0  0  0  0  0  0  0  0  0  0
   -5.8700    4.5560    0.0000 H   0  0  0  0  0  0  0  0  0  0  0  0
   -0.7500    3.2650    0.0000 H   0  0  0  0  0  0  0  0  0  0  0  0
   -1.6530    2.4520    0.0000 H   0  0  0  0  0  0  0  0  0  0  0  0
   -2.5800    0.8550    0.0000 H   0  0  0  0  0  0  0  0  0  0  0  0
    0.2980    1.6180    0.0000 H   0  0  0  0  0  0  0  0  0  0  0  0
  1  2  1  0  0  0  0
  1  5  1  0  0  0  0
  2  3  2  0  0  0  0
  2 14  1  0  0  0  0
  3  4  1  0  0  0  0
  4  5  2  0  0  0  0
  4  6  1  0  0  0  0
  5 32  1  0  0  0  0
  6  7  2  0  0  0  0
  6 13  1  0  0  0  0
  7  8  1  0  0  0  0
  7 33  1  0  0  0  0
  8  9  2  0  0  0  0
  8 34  1  0  0  0  0
  9 10  1  0  0  0  0
  9 12  1  0  0  0  0
 10 11  3  0  0  0  0
 12 13  2  0  0  0  0
 12 35  1  0  0  0  0
 13 36  1  0  0  0  0
 14 15  1  0  0  0  0
 14 31  1  0  0  0  0
 14 37  1  6  0  0  0
 15 16  1  6  0  0  0
 15 17  1  0  0  0  0
 15 25  1  0  0  0  0
 16 38  1  0  0  0  0
 17 18  2  0  0  0  0
 17 24  1  0  0  0  0
 18 19  1  0  0  0  0
 18 20  1  0  0  0  0
 20 21  2  0  0  0  0
 20 39  1  0  0  0  0
 21 22  1  0  0  0  0
 21 23  1  0  0  0  0
 23 24  2  0  0  0  0
 23 40  1  0  0  0  0
 24 41  1  0  0  0  0
 25 26  1  0  0  0  0
 25 42  1  0  0  0  0
 25 43  1  0  0  0  0
 26 27  1  0  0  0  0
 26 30  1  0  0  0  0
 27 28  2  0  0  0  0
 28 29  1  0  0  0  0
 28 44  1  0  0  0  0
 29 30  2  0  0  0  0
 30 45  1  0  0  0  0
 31 46  1  0  0  0  0
 31 47  1  0  0  0  0
 31 48  1  0  0  0  0
M  END
$$$$
