2D_structures\o14_MMV1634360_2D.pdb
 OpenBabel02252417213D

 30 33  0  0  1  0  0  0  0  0999 V2000
   -1.7350   -2.2220    0.0000 O   0  0  0  0  0  0  0  0  0  0  0  0
   -0.8260   -1.0280    0.0000 C   0  0  0  0  0  0  0  0  0  0  0  0
   -1.4050    0.3550    0.0000 N   0  0  0  0  0  0  0  0  0  0  0  0
   -0.4960    1.5490    0.0000 C   0  0  0  0  0  0  0  0  0  0  0  0
   -1.0750    2.9320    0.0000 O   0  0  0  0  0  0  0  0  0  0  0  0
    0.9920    1.3580    0.0000 C   0  0  0  0  0  0  0  0  0  0  0  0
    1.5710   -0.0260    0.0000 C   0  0  0  0  0  0  0  0  0  0  0  0
    0.6620   -1.2190    0.0000 C   0  0  0  0  0  0  0  0  0  0  0  0
    1.2410   -2.6030    0.0000 C   0  0  0  0  0  0  0  0  0  0  0  0
    2.7280   -2.7930    0.0000 C   0  0  0  0  0  0  0  0  0  0  0  0
    3.6370   -1.6000    0.0000 C   0  0  0  0  0  0  0  0  0  0  0  0
    3.0580   -0.2160    0.0000 C   0  0  0  0  0  0  0  0  0  0  0  0
    3.9670    0.9770    0.0000 C   0  0  0  0  0  0  0  0  0  0  0  0
    3.3880    2.3610    0.0000 C   0  0  0  0  0  0  0  0  0  0  0  0
    1.9010    2.5510    0.0000 C   0  0  0  0  0  0  0  0  0  0  0  0
   -2.8930    0.5460    0.0000 C   0  0  0  0  0  0  0  0  0  0  0  0
   -4.3810    0.7360    0.0000 C   0  0  1  0  0  0  0  0  0  0  0  0
   -5.8440    0.4060    0.0000 O   0  0  0  0  0  0  0  0  0  0  0  0
   -4.8270   -0.6960    0.0000 C   0  0  0  0  0  0  0  0  0  0  0  0
    0.3320   -3.7960    0.0000 H   0  0  0  0  0  0  0  0  0  0  0  0
    3.3070   -4.1770    0.0000 H   0  0  0  0  0  0  0  0  0  0  0  0
    5.1250   -1.7900    0.0000 H   0  0  0  0  0  0  0  0  0  0  0  0
    5.4550    0.7870    0.0000 H   0  0  0  0  0  0  0  0  0  0  0  0
    4.2970    3.5540    0.0000 H   0  0  0  0  0  0  0  0  0  0  0  0
    1.3220    3.9350    0.0000 H   0  0  0  0  0  0  0  0  0  0  0  0
   -2.9000   -0.8040    0.0000 H   0  0  0  0  0  0  0  0  0  0  0  0
   -2.7020    2.0340    0.0000 H   0  0  0  0  0  0  0  0  0  0  0  0
   -4.4520    2.2350    0.0000 H   0  0  0  0  0  0  0  0  0  0  0  0
   -5.7360   -1.8890    0.0000 H   0  0  0  0  0  0  0  0  0  0  0  0
   -3.7120   -1.4570    0.0000 H   0  0  0  0  0  0  0  0  0  0  0  0
  1  2  2  0  0  0  0
  2  3  1  0  0  0  0
  2  8  1  0  0  0  0
  3  4  1  0  0  0  0
  3 16  1  0  0  0  0
  4  5  2  0  0  0  0
  4  6  1  0  0  0  0
  6  7  1  0  0  0  0
  6 15  2  0  0  0  0
  7  8  2  0  0  0  0
  7 12  1  0  0  0  0
  8  9  1  0  0  0  0
  9 10  2  0  0  0  0
  9 20  1  0  0  0  0
 10 11  1  0  0  0  0
 10 21  1  0  0  0  0
 11 12  2  0  0  0  0
 11 22  1  0  0  0  0
 12 13  1  0  0  0  0
 13 14  2  0  0  0  0
 13 23  1  0  0  0  0
 14 15  1  0  0  0  0
 14 24  1  0  0  0  0
 15 25  1  0  0  0  0
 16 17  1  0  0  0  0
 16 26  1  0  0  0  0
 16 27  1  0  0  0  0
 17 18  1  0  0  0  0
 17 19  1  0  0  0  0
 17 28  1  1  0  0  0
 18 19  1  0  0  0  0
 19 29  1  0  0  0  0
 19 30  1  0  0  0  0
M  END
$$$$
