2D_structures\o15_MMV002565_2D.pdb
 OpenBabel02252417213D

 35 37  0  0  0  0  0  0  0  0999 V2000
    2.3360    1.3730    0.0000 S   0  0  1  0  0  0  0  0  0  0  0  0
    2.0660    2.8490    0.0000 O   0  0  0  0  0  0  0  0  0  0  0  0
    1.1940    0.4020    0.0000 C   0  0  0  0  0  0  0  0  0  0  0  0
   -0.2190    0.9050    0.0000 C   0  0  0  0  0  0  0  0  0  0  0  0
   -1.3620   -0.0670    0.0000 C   0  0  0  0  0  0  0  0  0  0  0  0
   -1.0910   -1.5420    0.0000 C   0  0  0  0  0  0  0  0  0  0  0  0
   -2.4110   -2.2550    0.0000 N   0  0  0  0  0  0  0  0  0  0  0  0
   -3.4970   -1.2210    0.0000 C   0  0  0  0  0  0  0  0  0  0  0  0
   -2.8490    0.1320    0.0000 N   0  0  0  0  0  0  0  0  0  0  0  0
   -4.9720   -1.4910    0.0000 N   0  0  0  0  0  0  0  0  0  0  0  0
   -5.9440   -0.3490    0.0000 C   0  0  0  0  0  0  0  0  0  0  0  0
   -7.4200   -0.6190    0.0000 O   0  0  0  0  0  0  0  0  0  0  0  0
   -5.4410    1.0640    0.0000 O   0  0  0  0  0  0  0  0  0  0  0  0
   -6.4130    2.2070    0.0000 C   0  0  0  0  0  0  0  0  0  0  0  0
    0.3220   -2.0460    0.0000 C   0  0  0  0  0  0  0  0  0  0  0  0
    1.4640   -1.0740    0.0000 C   0  0  0  0  0  0  0  0  0  0  0  0
    3.7490    0.8700    0.0000 C   0  0  0  0  0  0  0  0  0  0  0  0
    4.8920    1.8420    0.0000 C   0  0  0  0  0  0  0  0  0  0  0  0
    6.3050    1.3380    0.0000 C   0  0  0  0  0  0  0  0  0  0  0  0
    6.5750   -0.1370    0.0000 C   0  0  0  0  0  0  0  0  0  0  0  0
    5.4330   -1.1090    0.0000 C   0  0  0  0  0  0  0  0  0  0  0  0
    4.0200   -0.6060    0.0000 C   0  0  0  0  0  0  0  0  0  0  0  0
   -0.4900    2.3800    0.0000 H   0  0  0  0  0  0  0  0  0  0  0  0
   -2.6100   -3.7420    0.0000 H   0  0  0  0  0  0  0  0  0  0  0  0
   -5.4760   -2.9040    0.0000 H   0  0  0  0  0  0  0  0  0  0  0  0
   -7.3850    3.3490    0.0000 H   0  0  0  0  0  0  0  0  0  0  0  0
   -5.2700    3.1790    0.0000 H   0  0  0  0  0  0  0  0  0  0  0  0
   -7.5550    1.2350    0.0000 H   0  0  0  0  0  0  0  0  0  0  0  0
    0.5920   -3.5210    0.0000 H   0  0  0  0  0  0  0  0  0  0  0  0
    2.3440   -1.5150    0.0000 H   0  0  0  0  0  0  0  0  0  0  0  0
    4.6210    3.3170    0.0000 H   0  0  0  0  0  0  0  0  0  0  0  0
    7.4470    2.3100    0.0000 H   0  0  0  0  0  0  0  0  0  0  0  0
    7.9880   -0.6410    0.0000 H   0  0  0  0  0  0  0  0  0  0  0  0
    5.7030   -2.5840    0.0000 H   0  0  0  0  0  0  0  0  0  0  0  0
    3.3530   -1.3300    0.0000 H   0  0  0  0  0  0  0  0  0  0  0  0
  1  2  2  6  0  0  0
  1  3  1  0  0  0  0
  1 17  1  0  0  0  0
  3  4  2  0  0  0  0
  3 16  1  0  0  0  0
  4  5  1  0  0  0  0
  4 23  1  0  0  0  0
  5  6  2  0  0  0  0
  5  9  1  0  0  0  0
  6  7  1  0  0  0  0
  6 15  1  0  0  0  0
  7  8  1  0  0  0  0
  7 24  1  0  0  0  0
  8  9  2  0  0  0  0
  8 10  1  0  0  0  0
 10 11  1  0  0  0  0
 10 25  1  0  0  0  0
 11 12  2  0  0  0  0
 11 13  1  0  0  0  0
 13 14  1  0  0  0  0
 14 26  1  0  0  0  0
 14 27  1  0  0  0  0
 14 28  1  0  0  0  0
 15 16  2  0  0  0  0
 15 29  1  0  0  0  0
 16 30  1  0  0  0  0
 17 18  2  0  0  0  0
 17 22  1  0  0  0  0
 18 19  1  0  0  0  0
 18 31  1  0  0  0  0
 19 20  2  0  0  0  0
 19 32  1  0  0  0  0
 20 21  1  0  0  0  0
 20 33  1  0  0  0  0
 21 22  2  0  0  0  0
 21 34  1  0  0  0  0
 22 35  1  0  0  0  0
M  END
$$$$
