2D_structures\o16_MMV396785_2D.pdb
 OpenBabel02252417213D

 92 91  0  0  1  0  0  0  0  0999 V2000
   -9.5590   -4.5170    0.0000 N   0  0  0  0  0  0  0  0  0  0  0  0
   -8.6650   -3.3130    0.0000 C   0  0  0  0  0  0  0  0  0  0  0  0
   -7.1750   -3.4860    0.0000 N   0  0  0  0  0  0  0  0  0  0  0  0
   -6.5790   -4.8630    0.0000 C   0  0  0  0  0  0  0  0  0  0  0  0
   -7.4740   -6.0670    0.0000 N   0  0  0  0  0  0  0  0  0  0  0  0
   -5.0890   -5.0360    0.0000 N   0  0  0  0  0  0  0  0  0  0  0  0
   -4.1950   -3.8320    0.0000 C   0  0  0  0  0  0  0  0  0  0  0  0
   -3.3000   -2.6280    0.0000 C   0  0  0  0  0  0  0  0  0  0  0  0
   -2.4050   -1.4240    0.0000 C   0  0  0  0  0  0  0  0  0  0  0  0
   -1.5100   -0.2210    0.0000 C   0  0  0  0  0  0  0  0  0  0  0  0
   -0.6150    0.9830    0.0000 C   0  0  0  0  0  0  0  0  0  0  0  0
    0.2800    2.1870    0.0000 C   0  0  0  0  0  0  0  0  0  0  0  0
    1.1740    3.3910    0.0000 N   0  0  0  0  0  0  0  0  0  0  0  0
    2.6640    3.2180    0.0000 C   0  0  0  0  0  0  0  0  0  0  0  0
    3.5590    4.4220    0.0000 N   0  0  0  0  0  0  0  0  0  0  0  0
    3.2600    1.8410    0.0000 N   0  0  0  0  0  0  0  0  0  0  0  0
    4.7500    1.6680    0.0000 C   0  0  0  0  0  0  0  0  0  0  0  0
    5.6440    2.8720    0.0000 N   0  0  0  0  0  0  0  0  0  0  0  0
    5.3450    0.2910    0.0000 N   0  0  0  0  0  0  0  0  0  0  0  0
    6.8350    0.1180    0.0000 C   0  0  0  0  0  0  0  0  0  0  0  0
    8.3250   -0.0550    0.0000 C   0  0  1  0  0  0  0  0  0  0  0  0
    9.8150   -0.2280    0.0000 C   0  0  0  0  0  0  0  0  0  0  0  0
   11.3050   -0.4010    0.0000 C   0  0  0  0  0  0  0  0  0  0  0  0
   12.7950   -0.5740    0.0000 C   0  0  0  0  0  0  0  0  0  0  0  0
   14.2850   -0.7470    0.0000 C   0  0  0  0  0  0  0  0  0  0  0  0
    8.1520   -1.5450    0.0000 C   0  0  0  0  0  0  0  0  0  0  0  0
    7.9790   -3.0350    0.0000 C   0  0  0  0  0  0  0  0  0  0  0  0
   -9.2600   -1.9360    0.0000 N   0  0  0  0  0  0  0  0  0  0  0  0
   -8.3650   -0.7320    0.0000 C   0  0  0  0  0  0  0  0  0  0  0  0
   -7.4700    0.4720    0.0000 C   0  0  1  0  0  0  0  0  0  0  0  0
   -6.5750    1.6750    0.0000 C   0  0  0  0  0  0  0  0  0  0  0  0
   -5.6800    2.8790    0.0000 C   0  0  0  0  0  0  0  0  0  0  0  0
   -4.7860    4.0830    0.0000 C   0  0  0  0  0  0  0  0  0  0  0  0
   -3.8910    5.2870    0.0000 C   0  0  0  0  0  0  0  0  0  0  0  0
   -8.6740    1.3660    0.0000 C   0  0  0  0  0  0  0  0  0  0  0  0
   -9.8780    2.2610    0.0000 C   0  0  0  0  0  0  0  0  0  0  0  0
  -11.0490   -4.3440    0.0000 H   0  0  0  0  0  0  0  0  0  0  0  0
   -6.2800   -2.2820    0.0000 H   0  0  0  0  0  0  0  0  0  0  0  0
   -6.8790   -7.4440    0.0000 H   0  0  0  0  0  0  0  0  0  0  0  0
   -4.4940   -6.4130    0.0000 H   0  0  0  0  0  0  0  0  0  0  0  0
   -2.9910   -4.7270    0.0000 H   0  0  0  0  0  0  0  0  0  0  0  0
   -5.3990   -2.9370    0.0000 H   0  0  0  0  0  0  0  0  0  0  0  0
   -2.0960   -3.5230    0.0000 H   0  0  0  0  0  0  0  0  0  0  0  0
   -4.5040   -1.7330    0.0000 H   0  0  0  0  0  0  0  0  0  0  0  0
   -1.2010   -2.3190    0.0000 H   0  0  0  0  0  0  0  0  0  0  0  0
   -3.6090   -0.5300    0.0000 H   0  0  0  0  0  0  0  0  0  0  0  0
   -0.3060   -1.1150    0.0000 H   0  0  0  0  0  0  0  0  0  0  0  0
   -2.7140    0.6740    0.0000 H   0  0  0  0  0  0  0  0  0  0  0  0
    0.5890    0.0880    0.0000 H   0  0  0  0  0  0  0  0  0  0  0  0
   -1.8190    1.8780    0.0000 H   0  0  0  0  0  0  0  0  0  0  0  0
    1.4830    1.2920    0.0000 H   0  0  0  0  0  0  0  0  0  0  0  0
   -0.9240    3.0820    0.0000 H   0  0  0  0  0  0  0  0  0  0  0  0
    0.5790    4.7680    0.0000 H   0  0  0  0  0  0  0  0  0  0  0  0
    5.0490    4.2490    0.0000 H   0  0  0  0  0  0  0  0  0  0  0  0
    2.3650    0.6370    0.0000 H   0  0  0  0  0  0  0  0  0  0  0  0
    7.1340    2.6990    0.0000 H   0  0  0  0  0  0  0  0  0  0  0  0
    4.4500   -0.9130    0.0000 H   0  0  0  0  0  0  0  0  0  0  0  0
    7.0080    1.6080    0.0000 H   0  0  0  0  0  0  0  0  0  0  0  0
    6.6260   -0.7430    0.0000 H   0  0  0  0  0  0  0  0  0  0  0  0
    8.4980    1.4350    0.0000 H   0  0  0  0  0  0  0  0  0  0  0  0
    9.9880    1.2620    0.0000 H   0  0  0  0  0  0  0  0  0  0  0  0
    9.8200   -1.1140    0.0000 H   0  0  0  0  0  0  0  0  0  0  0  0
   11.1320   -1.8910    0.0000 H   0  0  0  0  0  0  0  0  0  0  0  0
   11.4780    1.0890    0.0000 H   0  0  0  0  0  0  0  0  0  0  0  0
   12.9680    0.9160    0.0000 H   0  0  0  0  0  0  0  0  0  0  0  0
   12.6220   -2.0640    0.0000 H   0  0  0  0  0  0  0  0  0  0  0  0
   15.7750   -0.9200    0.0000 H   0  0  0  0  0  0  0  0  0  0  0  0
   14.1120   -2.2370    0.0000 H   0  0  0  0  0  0  0  0  0  0  0  0
   14.4580    0.7430    0.0000 H   0  0  0  0  0  0  0  0  0  0  0  0
    7.2660   -1.5510    0.0000 H   0  0  0  0  0  0  0  0  0  0  0  0
    9.0120   -1.7530    0.0000 H   0  0  0  0  0  0  0  0  0  0  0  0
    7.8060   -4.5250    0.0000 H   0  0  0  0  0  0  0  0  0  0  0  0
    6.4890   -2.8620    0.0000 H   0  0  0  0  0  0  0  0  0  0  0  0
    9.4690   -3.2080    0.0000 H   0  0  0  0  0  0  0  0  0  0  0  0
  -10.7500   -1.7630    0.0000 H   0  0  0  0  0  0  0  0  0  0  0  0
   -7.1610   -1.6270    0.0000 H   0  0  0  0  0  0  0  0  0  0  0  0
   -9.6690    0.0090    0.0000 H   0  0  0  0  0  0  0  0  0  0  0  0
   -6.2660   -0.4230    0.0000 H   0  0  0  0  0  0  0  0  0  0  0  0
   -7.2160    2.2870    0.0000 H   0  0  0  0  0  0  0  0  0  0  0  0
   -5.3710    0.7810    0.0000 H   0  0  0  0  0  0  0  0  0  0  0  0
   -4.4770    1.9840    0.0000 H   0  0  0  0  0  0  0  0  0  0  0  0
   -6.8840    3.7740    0.0000 H   0  0  0  0  0  0  0  0  0  0  0  0
   -5.9890    4.9780    0.0000 H   0  0  0  0  0  0  0  0  0  0  0  0
   -3.5820    3.1880    0.0000 H   0  0  0  0  0  0  0  0  0  0  0  0
   -2.9960    6.4910    0.0000 H   0  0  0  0  0  0  0  0  0  0  0  0
   -5.0950    6.1820    0.0000 H   0  0  0  0  0  0  0  0  0  0  0  0
   -2.6870    4.3920    0.0000 H   0  0  0  0  0  0  0  0  0  0  0  0
   -8.2360    2.1360    0.0000 H   0  0  0  0  0  0  0  0  0  0  0  0
   -9.7090    0.2810    0.0000 H   0  0  0  0  0  0  0  0  0  0  0  0
  -11.0820    3.1560    0.0000 H   0  0  0  0  0  0  0  0  0  0  0  0
   -8.9830    3.4650    0.0000 H   0  0  0  0  0  0  0  0  0  0  0  0
  -10.7730    1.0570    0.0000 H   0  0  0  0  0  0  0  0  0  0  0  0
  1  2  2  0  0  0  0
  1 37  1  0  0  0  0
  2  3  1  0  0  0  0
  2 28  1  0  0  0  0
  3  4  1  0  0  0  0
  3 38  1  0  0  0  0
  4  5  2  0  0  0  0
  4  6  1  0  0  0  0
  5 39  1  0  0  0  0
  6  7  1  0  0  0  0
  6 40  1  0  0  0  0
  7  8  1  0  0  0  0
  7 41  1  0  0  0  0
  7 42  1  0  0  0  0
  8  9  1  0  0  0  0
  8 43  1  0  0  0  0
  8 44  1  0  0  0  0
  9 10  1  0  0  0  0
  9 45  1  0  0  0  0
  9 46  1  0  0  0  0
 10 11  1  0  0  0  0
 10 47  1  0  0  0  0
 10 48  1  0  0  0  0
 11 12  1  0  0  0  0
 11 49  1  0  0  0  0
 11 50  1  0  0  0  0
 12 13  1  0  0  0  0
 12 51  1  0  0  0  0
 12 52  1  0  0  0  0
 13 14  1  0  0  0  0
 13 53  1  0  0  0  0
 14 15  2  0  0  0  0
 14 16  1  0  0  0  0
 15 54  1  0  0  0  0
 16 17  1  0  0  0  0
 16 55  1  0  0  0  0
 17 18  2  0  0  0  0
 17 19  1  0  0  0  0
 18 56  1  0  0  0  0
 19 20  1  0  0  0  0
 19 57  1  0  0  0  0
 20 21  1  0  0  0  0
 20 58  1  0  0  0  0
 20 59  1  0  0  0  0
 21 22  1  0  0  0  0
 21 26  1  0  0  0  0
 21 60  1  6  0  0  0
 22 23  1  0  0  0  0
 22 61  1  0  0  0  0
 22 62  1  0  0  0  0
 23 24  1  0  0  0  0
 23 63  1  0  0  0  0
 23 64  1  0  0  0  0
 24 25  1  0  0  0  0
 24 65  1  0  0  0  0
 24 66  1  0  0  0  0
 25 67  1  0  0  0  0
 25 68  1  0  0  0  0
 25 69  1  0  0  0  0
 26 27  1  0  0  0  0
 26 70  1  0  0  0  0
 26 71  1  0  0  0  0
 27 72  1  0  0  0  0
 27 73  1  0  0  0  0
 27 74  1  0  0  0  0
 28 29  1  0  0  0  0
 28 75  1  0  0  0  0
 29 30  1  0  0  0  0
 29 76  1  0  0  0  0
 29 77  1  0  0  0  0
 30 31  1  0  0  0  0
 30 35  1  0  0  0  0
 30 78  1  1  0  0  0
 31 32  1  0  0  0  0
 31 79  1  0  0  0  0
 31 80  1  0  0  0  0
 32 33  1  0  0  0  0
 32 81  1  0  0  0  0
 32 82  1  0  0  0  0
 33 34  1  0  0  0  0
 33 83  1  0  0  0  0
 33 84  1  0  0  0  0
 34 85  1  0  0  0  0
 34 86  1  0  0  0  0
 34 87  1  0  0  0  0
 35 36  1  0  0  0  0
 35 88  1  0  0  0  0
 35 89  1  0  0  0  0
 36 90  1  0  0  0  0
 36 91  1  0  0  0  0
 36 92  1  0  0  0  0
M  END
$$$$
