2D_structures\o18_MMV002337_2D.pdb
 OpenBabel02252417213D

 34 36  0  0  0  0  0  0  0  0999 V2000
    1.4830   -3.4900    0.0000 F   0  0  0  0  0  0  0  0  0  0  0  0
    2.2400   -2.1950    0.0000 C   0  0  0  0  0  0  0  0  0  0  0  0
    1.4960   -0.8920    0.0000 C   0  0  0  0  0  0  0  0  0  0  0  0
    2.2520    0.4030    0.0000 C   0  0  0  0  0  0  0  0  0  0  0  0
    3.7520    0.3950    0.0000 C   0  0  0  0  0  0  0  0  0  0  0  0
    4.4960   -0.9070    0.0000 C   0  0  0  0  0  0  0  0  0  0  0  0
    3.7400   -2.2030    0.0000 C   0  0  0  0  0  0  0  0  0  0  0  0
    5.9960   -0.9150    0.0000 F   0  0  0  0  0  0  0  0  0  0  0  0
   -0.0040   -0.8850    0.0000 C   0  0  0  0  0  0  0  0  0  0  0  0
   -0.0110   -2.3850    0.0000 O   0  0  0  0  0  0  0  0  0  0  0  0
   -1.5040   -0.8780    0.0000 C   0  0  0  0  0  0  0  0  0  0  0  0
   -3.0040   -0.8700    0.0000 N   0  0  0  0  0  0  0  0  0  0  0  0
   -3.8800    0.3480    0.0000 N   0  0  0  0  0  0  0  0  0  0  0  0
   -5.3080   -0.1090    0.0000 C   0  0  0  0  0  0  0  0  0  0  0  0
   -5.3160   -1.6090    0.0000 N   0  0  0  0  0  0  0  0  0  0  0  0
   -3.8920   -2.0790    0.0000 C   0  0  0  0  0  0  0  0  0  0  0  0
    0.0030    0.6150    0.0000 C   0  0  0  0  0  0  0  0  0  0  0  0
    0.0110    2.1150    0.0000 N   0  0  0  0  0  0  0  0  0  0  0  0
   -1.1980    3.0030    0.0000 N   0  0  0  0  0  0  0  0  0  0  0  0
   -0.7280    4.4270    0.0000 C   0  0  0  0  0  0  0  0  0  0  0  0
    0.7720    4.4200    0.0000 N   0  0  0  0  0  0  0  0  0  0  0  0
    1.2290    2.9910    0.0000 C   0  0  0  0  0  0  0  0  0  0  0  0
    1.8130    1.1720    0.0000 H   0  0  0  0  0  0  0  0  0  0  0  0
    4.5090    1.6910    0.0000 H   0  0  0  0  0  0  0  0  0  0  0  0
    4.4830   -3.5050    0.0000 H   0  0  0  0  0  0  0  0  0  0  0  0
   -1.2140   -3.2820    0.0000 H   0  0  0  0  0  0  0  0  0  0  0  0
   -1.6080    0.0020    0.0000 H   0  0  0  0  0  0  0  0  0  0  0  0
   -1.6940   -2.3650    0.0000 H   0  0  0  0  0  0  0  0  0  0  0  0
   -6.5180    0.7790    0.0000 H   0  0  0  0  0  0  0  0  0  0  0  0
   -3.4350   -3.5080    0.0000 H   0  0  0  0  0  0  0  0  0  0  0  0
   -0.8750    0.7270    0.0000 H   0  0  0  0  0  0  0  0  0  0  0  0
    0.8640    0.8250    0.0000 H   0  0  0  0  0  0  0  0  0  0  0  0
   -1.6030    5.6450    0.0000 H   0  0  0  0  0  0  0  0  0  0  0  0
    2.6530    2.5200    0.0000 H   0  0  0  0  0  0  0  0  0  0  0  0
  1  2  1  0  0  0  0
  2  3  2  0  0  0  0
  2  7  1  0  0  0  0
  3  4  1  0  0  0  0
  3  9  1  0  0  0  0
  4  5  2  0  0  0  0
  4 23  1  0  0  0  0
  5  6  1  0  0  0  0
  5 24  1  0  0  0  0
  6  7  2  0  0  0  0
  6  8  1  0  0  0  0
  7 25  1  0  0  0  0
  9 10  1  0  0  0  0
  9 11  1  0  0  0  0
  9 17  1  0  0  0  0
 10 26  1  0  0  0  0
 11 12  1  0  0  0  0
 11 27  1  0  0  0  0
 11 28  1  0  0  0  0
 12 13  1  0  0  0  0
 12 16  1  0  0  0  0
 13 14  2  0  0  0  0
 14 15  1  0  0  0  0
 14 29  1  0  0  0  0
 15 16  2  0  0  0  0
 16 30  1  0  0  0  0
 17 18  1  0  0  0  0
 17 31  1  0  0  0  0
 17 32  1  0  0  0  0
 18 19  1  0  0  0  0
 18 22  1  0  0  0  0
 19 20  2  0  0  0  0
 20 21  1  0  0  0  0
 20 33  1  0  0  0  0
 21 22  2  0  0  0  0
 22 34  1  0  0  0  0
M  END
$$$$
