2D_structures\o19_MMV1634363_2D.pdb
 OpenBabel02252417213D

 17 18  0  0  0  0  0  0  0  0999 V2000
    3.9420    0.4550    0.0000 Cl  0  0  0  0  0  0  0  0  0  0  0  0
    2.4830    0.1070    0.0000 C   0  0  0  0  0  0  0  0  0  0  0  0
    1.4520    1.1970    0.0000 C   0  0  0  0  0  0  0  0  0  0  0  0
   -0.0070    0.8490    0.0000 C   0  0  0  0  0  0  0  0  0  0  0  0
   -0.4350   -0.5890    0.0000 C   0  0  0  0  0  0  0  0  0  0  0  0
   -1.9350   -0.6260    0.0000 B   0  0  0  0  0  0  0  0  0  0  0  0
   -2.7860   -1.8610    0.0000 O   0  0  0  0  0  0  0  0  0  0  0  0
   -2.4330    0.7890    0.0000 O   0  0  0  0  0  0  0  0  0  0  0  0
   -1.2420    1.7000    0.0000 C   0  0  0  0  0  0  0  0  0  0  0  0
    0.5960   -1.6780    0.0000 C   0  0  0  0  0  0  0  0  0  0  0  0
    2.0550   -1.3300    0.0000 C   0  0  0  0  0  0  0  0  0  0  0  0
    1.8800    2.6340    0.0000 H   0  0  0  0  0  0  0  0  0  0  0  0
   -4.2810   -1.7410    0.0000 H   0  0  0  0  0  0  0  0  0  0  0  0
   -2.2730    2.7900    0.0000 H   0  0  0  0  0  0  0  0  0  0  0  0
   -0.2660    2.8390    0.0000 H   0  0  0  0  0  0  0  0  0  0  0  0
    0.1670   -3.1160    0.0000 H   0  0  0  0  0  0  0  0  0  0  0  0
    3.0860   -2.4200    0.0000 H   0  0  0  0  0  0  0  0  0  0  0  0
  1  2  1  0  0  0  0
  2  3  2  0  0  0  0
  2 11  1  0  0  0  0
  3  4  1  0  0  0  0
  3 12  1  0  0  0  0
  4  5  2  0  0  0  0
  4  9  1  0  0  0  0
  5  6  1  0  0  0  0
  5 10  1  0  0  0  0
  6  7  1  0  0  0  0
  6  8  1  0  0  0  0
  7 13  1  0  0  0  0
  8  9  1  0  0  0  0
  9 14  1  0  0  0  0
  9 15  1  0  0  0  0
 10 11  2  0  0  0  0
 10 16  1  0  0  0  0
 11 17  1  0  0  0  0
M  END
$$$$
