2D_structures\o22_MMV1634493_2D.pdb
 OpenBabel02252417213D

 49 52  0  0  0  0  0  0  0  0999 V2000
   -2.8960    1.9010    0.0000 S   0  0  0  0  0  0  0  0  0  0  0  0
   -2.2840    0.5310    0.0000 C   0  0  0  0  0  0  0  0  0  0  0  0
   -0.7930    0.6900    0.0000 N   0  0  0  0  0  0  0  0  0  0  0  0
   -0.4830    2.1570    0.0000 C   0  0  0  0  0  0  0  0  0  0  0  0
   -1.7830    2.9060    0.0000 C   0  0  0  0  0  0  0  0  0  0  0  0
    0.8870    2.7690    0.0000 C   0  0  0  0  0  0  0  0  0  0  0  0
    2.1020    1.8890    0.0000 C   0  0  0  0  0  0  0  0  0  0  0  0
    1.9470    0.3970    0.0000 O   0  0  0  0  0  0  0  0  0  0  0  0
    3.1610   -0.4830    0.0000 C   0  0  0  0  0  0  0  0  0  0  0  0
    3.0060   -1.9750    0.0000 C   0  0  0  0  0  0  0  0  0  0  0  0
    4.2210   -2.8550    0.0000 C   0  0  0  0  0  0  0  0  0  0  0  0
    5.5910   -2.2430    0.0000 C   0  0  0  0  0  0  0  0  0  0  0  0
    6.8050   -3.1230    0.0000 C   0  0  0  0  0  0  0  0  0  0  0  0
    5.7460   -0.7510    0.0000 C   0  0  0  0  0  0  0  0  0  0  0  0
    4.5310    0.1290    0.0000 C   0  0  0  0  0  0  0  0  0  0  0  0
    1.6370   -2.5870    0.0000 C   0  0  0  0  0  0  0  0  0  0  0  0
    3.4710    2.5010    0.0000 C   0  0  0  0  0  0  0  0  0  0  0  0
    3.6260    3.9930    0.0000 C   0  0  0  0  0  0  0  0  0  0  0  0
    2.4110    4.8730    0.0000 C   0  0  0  0  0  0  0  0  0  0  0  0
    1.0420    4.2610    0.0000 C   0  0  0  0  0  0  0  0  0  0  0  0
   -3.0330   -0.7690    0.0000 N   0  0  0  0  0  0  0  0  0  0  0  0
   -4.5330   -0.7710    0.0000 C   0  0  0  0  0  0  0  0  0  0  0  0
   -5.2840    0.5270    0.0000 N   0  0  0  0  0  0  0  0  0  0  0  0
   -6.7840    0.5250    0.0000 C   0  0  0  0  0  0  0  0  0  0  0  0
   -7.5330   -0.7750    0.0000 C   0  0  0  0  0  0  0  0  0  0  0  0
   -6.7810   -2.0730    0.0000 C   0  0  0  0  0  0  0  0  0  0  0  0
   -5.2810   -2.0710    0.0000 N   0  0  0  0  0  0  0  0  0  0  0  0
   -1.9410    4.3970    0.0000 H   0  0  0  0  0  0  0  0  0  0  0  0
    4.0660   -4.3470    0.0000 H   0  0  0  0  0  0  0  0  0  0  0  0
    8.0200   -4.0040    0.0000 H   0  0  0  0  0  0  0  0  0  0  0  0
    7.6850   -1.9090    0.0000 H   0  0  0  0  0  0  0  0  0  0  0  0
    5.9250   -4.3380    0.0000 H   0  0  0  0  0  0  0  0  0  0  0  0
    7.1150   -0.1390    0.0000 H   0  0  0  0  0  0  0  0  0  0  0  0
    4.7510    1.0880    0.0000 H   0  0  0  0  0  0  0  0  0  0  0  0
    0.2670   -3.1990    0.0000 H   0  0  0  0  0  0  0  0  0  0  0  0
    2.2490   -3.9560    0.0000 H   0  0  0  0  0  0  0  0  0  0  0  0
    1.0250   -1.2170    0.0000 H   0  0  0  0  0  0  0  0  0  0  0  0
    4.3320    2.0250    0.0000 H   0  0  0  0  0  0  0  0  0  0  0  0
    4.9960    4.6050    0.0000 H   0  0  0  0  0  0  0  0  0  0  0  0
    2.5660    6.3650    0.0000 H   0  0  0  0  0  0  0  0  0  0  0  0
   -0.1730    5.1410    0.0000 H   0  0  0  0  0  0  0  0  0  0  0  0
   -2.2810   -2.0670    0.0000 H   0  0  0  0  0  0  0  0  0  0  0  0
   -8.1940    1.0370    0.0000 H   0  0  0  0  0  0  0  0  0  0  0  0
   -6.5260    2.0030    0.0000 H   0  0  0  0  0  0  0  0  0  0  0  0
   -8.6800   -1.7400    0.0000 H   0  0  0  0  0  0  0  0  0  0  0  0
   -8.6830    0.1880    0.0000 H   0  0  0  0  0  0  0  0  0  0  0  0
   -6.5190   -3.5500    0.0000 H   0  0  0  0  0  0  0  0  0  0  0  0
   -8.1900   -2.5880    0.0000 H   0  0  0  0  0  0  0  0  0  0  0  0
   -4.5290   -3.3690    0.0000 H   0  0  0  0  0  0  0  0  0  0  0  0
  1  2  1  0  0  0  0
  1  5  1  0  0  0  0
  2  3  2  0  0  0  0
  2 21  1  0  0  0  0
  3  4  1  0  0  0  0
  4  5  2  0  0  0  0
  4  6  1  0  0  0  0
  5 28  1  0  0  0  0
  6  7  1  0  0  0  0
  6 20  2  0  0  0  0
  7  8  1  0  0  0  0
  7 17  2  0  0  0  0
  8  9  1  0  0  0  0
  9 10  2  0  0  0  0
  9 15  1  0  0  0  0
 10 11  1  0  0  0  0
 10 16  1  0  0  0  0
 11 12  2  0  0  0  0
 11 29  1  0  0  0  0
 12 13  1  0  0  0  0
 12 14  1  0  0  0  0
 13 30  1  0  0  0  0
 13 31  1  0  0  0  0
 13 32  1  0  0  0  0
 14 15  2  0  0  0  0
 14 33  1  0  0  0  0
 15 34  1  0  0  0  0
 16 35  1  0  0  0  0
 16 36  1  0  0  0  0
 16 37  1  0  0  0  0
 17 18  1  0  0  0  0
 17 38  1  0  0  0  0
 18 19  2  0  0  0  0
 18 39  1  0  0  0  0
 19 20  1  0  0  0  0
 19 40  1  0  0  0  0
 20 41  1  0  0  0  0
 21 22  1  0  0  0  0
 21 42  1  0  0  0  0
 22 23  2  0  0  0  0
 22 27  1  0  0  0  0
 23 24  1  0  0  0  0
 24 25  1  0  0  0  0
 24 43  1  0  0  0  0
 24 44  1  0  0  0  0
 25 26  1  0  0  0  0
 25 45  1  0  0  0  0
 25 46  1  0  0  0  0
 26 27  1  0  0  0  0
 26 47  1  0  0  0  0
 26 48  1  0  0  0  0
 27 49  1  0  0  0  0
M  END
$$$$
