2D_structures\o23_MMV344625_2D.pdb
 OpenBabel02252417213D

 23 24  0  0  0  0  0  0  0  0999 V2000
   -4.4190   -1.6990    0.0000 O   0  0  0  0  0  0  0  0  0  0  0  0
   -3.0530   -1.0790    0.0000 C   0  0  0  0  0  0  0  0  0  0  0  0
   -2.9080    0.4140    0.0000 O   0  0  0  0  0  0  0  0  0  0  0  0
   -4.1280    1.2870    0.0000 C   0  0  0  0  0  0  0  0  0  0  0  0
   -1.8330   -1.9510    0.0000 N   0  0  0  0  0  0  0  0  0  0  0  0
   -0.4670   -1.3310    0.0000 C   0  0  0  0  0  0  0  0  0  0  0  0
    0.8370   -2.0710    0.0000 N   0  0  0  0  0  0  0  0  0  0  0  0
    1.9440   -1.0590    0.0000 C   0  0  0  0  0  0  0  0  0  0  0  0
    1.3240    0.3070    0.0000 C   0  0  0  0  0  0  0  0  0  0  0  0
   -0.1670    0.1390    0.0000 N   0  0  0  0  0  0  0  0  0  0  0  0
    2.1960    1.5270    0.0000 C   0  0  0  0  0  0  0  0  0  0  0  0
    3.6890    1.3810    0.0000 C   0  0  0  0  0  0  0  0  0  0  0  0
    4.3100    0.0150    0.0000 C   0  0  0  0  0  0  0  0  0  0  0  0
    3.4370   -1.2050    0.0000 C   0  0  0  0  0  0  0  0  0  0  0  0
   -5.3480    2.1590    0.0000 H   0  0  0  0  0  0  0  0  0  0  0  0
   -3.2550    2.5070    0.0000 H   0  0  0  0  0  0  0  0  0  0  0  0
   -5.0000    0.0660    0.0000 H   0  0  0  0  0  0  0  0  0  0  0  0
   -1.9790   -3.4440    0.0000 H   0  0  0  0  0  0  0  0  0  0  0  0
   -1.1790    1.2460    0.0000 H   0  0  0  0  0  0  0  0  0  0  0  0
    1.5760    2.8920    0.0000 H   0  0  0  0  0  0  0  0  0  0  0  0
    4.5620    2.6010    0.0000 H   0  0  0  0  0  0  0  0  0  0  0  0
    5.8030   -0.1300    0.0000 H   0  0  0  0  0  0  0  0  0  0  0  0
    4.0580   -2.5700    0.0000 H   0  0  0  0  0  0  0  0  0  0  0  0
  1  2  2  0  0  0  0
  2  3  1  0  0  0  0
  2  5  1  0  0  0  0
  3  4  1  0  0  0  0
  4 15  1  0  0  0  0
  4 16  1  0  0  0  0
  4 17  1  0  0  0  0
  5  6  1  0  0  0  0
  5 18  1  0  0  0  0
  6  7  2  0  0  0  0
  6 10  1  0  0  0  0
  7  8  1  0  0  0  0
  8  9  2  0  0  0  0
  8 14  1  0  0  0  0
  9 10  1  0  0  0  0
  9 11  1  0  0  0  0
 10 19  1  0  0  0  0
 11 12  2  0  0  0  0
 11 20  1  0  0  0  0
 12 13  1  0  0  0  0
 12 21  1  0  0  0  0
 13 14  2  0  0  0  0
 13 22  1  0  0  0  0
 14 23  1  0  0  0  0
M  END
$$$$
