2D_structures\o24_MMV1634358_2D.pdb
 OpenBabel02252417213D

 58 59  0  0  1  0  0  0  0  0999 V2000
    7.4420    0.0330    0.0000 O   0  0  0  0  0  0  0  0  0  0  0  0
    6.6880   -1.2630    0.0000 C   0  0  1  0  0  0  0  0  0  0  0  0
    5.1880   -1.2580    0.0000 C   0  0  0  0  0  0  0  0  0  0  0  0
    4.4420    0.0430    0.0000 N   0  0  0  0  0  0  0  0  0  0  0  0
    2.9420    0.0480    0.0000 C   0  0  0  0  0  0  0  0  0  0  0  0
    1.4420    0.0530    0.0000 C   0  0  1  0  0  0  0  0  0  0  0  0
   -0.0580    0.0580    0.0000 C   0  0  0  0  0  0  0  0  0  0  0  0
   -1.5580    0.0620    0.0000 C   0  0  0  0  0  0  0  0  0  0  0  0
   -2.3040    1.3640    0.0000 C   0  0  0  0  0  0  0  0  0  0  0  0
   -3.8040    1.3690    0.0000 C   0  0  0  0  0  0  0  0  0  0  0  0
   -4.5580    0.0720    0.0000 C   0  0  0  0  0  0  0  0  0  0  0  0
   -6.0580    0.0770    0.0000 C   0  0  0  0  0  0  0  0  0  0  0  0
   -7.5580    0.0820    0.0000 C   0  0  0  0  0  0  0  0  0  0  0  0
   -9.0580    0.0860    0.0000 C   0  0  0  0  0  0  0  0  0  0  0  0
   -6.0630   -1.4230    0.0000 C   0  0  0  0  0  0  0  0  0  0  0  0
   -6.0530    1.5770    0.0000 C   0  0  0  0  0  0  0  0  0  0  0  0
   -3.8120   -1.2290    0.0000 C   0  0  0  0  0  0  0  0  0  0  0  0
   -2.3120   -1.2340    0.0000 C   0  0  0  0  0  0  0  0  0  0  0  0
    1.4370   -1.4470    0.0000 C   0  0  0  0  0  0  0  0  0  0  0  0
    5.1960    1.3400    0.0000 C   0  0  0  0  0  0  0  0  0  0  0  0
    6.6960    1.3350    0.0000 C   0  0  1  0  0  0  0  0  0  0  0  0
    6.4400    2.8130    0.0000 C   0  0  0  0  0  0  0  0  0  0  0  0
    8.0960   -1.7810    0.0000 C   0  0  0  0  0  0  0  0  0  0  0  0
    6.4220   -2.7400    0.0000 H   0  0  0  0  0  0  0  0  0  0  0  0
    5.4430   -2.7360    0.0000 H   0  0  0  0  0  0  0  0  0  0  0  0
    3.9410   -2.0930    0.0000 H   0  0  0  0  0  0  0  0  0  0  0  0
    2.9370   -1.4520    0.0000 H   0  0  0  0  0  0  0  0  0  0  0  0
    2.7640    1.5370    0.0000 H   0  0  0  0  0  0  0  0  0  0  0  0
    1.4470    1.5530    0.0000 H   0  0  0  0  0  0  0  0  0  0  0  0
   -0.2460   -1.4310    0.0000 H   0  0  0  0  0  0  0  0  0  0  0  0
   -0.0530    1.5580    0.0000 H   0  0  0  0  0  0  0  0  0  0  0  0
   -1.5500    2.6600    0.0000 H   0  0  0  0  0  0  0  0  0  0  0  0
   -4.2440    2.1370    0.0000 H   0  0  0  0  0  0  0  0  0  0  0  0
   -7.6630    0.9610    0.0000 H   0  0  0  0  0  0  0  0  0  0  0  0
   -7.6690   -0.7970    0.0000 H   0  0  0  0  0  0  0  0  0  0  0  0
  -10.5580    0.0910    0.0000 H   0  0  0  0  0  0  0  0  0  0  0  0
   -9.0530    1.5860    0.0000 H   0  0  0  0  0  0  0  0  0  0  0  0
   -9.0630   -1.4140    0.0000 H   0  0  0  0  0  0  0  0  0  0  0  0
   -6.0680   -2.9230    0.0000 H   0  0  0  0  0  0  0  0  0  0  0  0
   -6.9420   -1.5280    0.0000 H   0  0  0  0  0  0  0  0  0  0  0  0
   -4.6090   -1.7910    0.0000 H   0  0  0  0  0  0  0  0  0  0  0  0
   -6.0480    3.0770    0.0000 H   0  0  0  0  0  0  0  0  0  0  0  0
   -6.9320    1.6880    0.0000 H   0  0  0  0  0  0  0  0  0  0  0  0
   -5.1930    1.7880    0.0000 H   0  0  0  0  0  0  0  0  0  0  0  0
   -4.5660   -2.5260    0.0000 H   0  0  0  0  0  0  0  0  0  0  0  0
   -1.5660   -2.5360    0.0000 H   0  0  0  0  0  0  0  0  0  0  0  0
    1.4320   -2.9470    0.0000 H   0  0  0  0  0  0  0  0  0  0  0  0
   -0.0520   -1.6250    0.0000 H   0  0  0  0  0  0  0  0  0  0  0  0
    2.8910   -1.8150    0.0000 H   0  0  0  0  0  0  0  0  0  0  0  0
    3.8620    2.0250    0.0000 H   0  0  0  0  0  0  0  0  0  0  0  0
    5.2790    2.8370    0.0000 H   0  0  0  0  0  0  0  0  0  0  0  0
    8.1070    1.8430    0.0000 H   0  0  0  0  0  0  0  0  0  0  0  0
    6.1850    4.2910    0.0000 H   0  0  0  0  0  0  0  0  0  0  0  0
    7.9180    3.0690    0.0000 H   0  0  0  0  0  0  0  0  0  0  0  0
    4.9420    2.7390    0.0000 H   0  0  0  0  0  0  0  0  0  0  0  0
    9.5030   -2.2980    0.0000 H   0  0  0  0  0  0  0  0  0  0  0  0
    7.5780   -3.1890    0.0000 H   0  0  0  0  0  0  0  0  0  0  0  0
    8.6130   -0.3730    0.0000 H   0  0  0  0  0  0  0  0  0  0  0  0
  1  2  1  0  0  0  0
  1 21  1  0  0  0  0
  2  3  1  0  0  0  0
  2 23  1  0  0  0  0
  2 24  1  1  0  0  0
  3  4  1  0  0  0  0
  3 25  1  0  0  0  0
  3 26  1  0  0  0  0
  4  5  1  0  0  0  0
  4 20  1  0  0  0  0
  5  6  1  0  0  0  0
  5 27  1  0  0  0  0
  5 28  1  0  0  0  0
  6  7  1  0  0  0  0
  6 19  1  0  0  0  0
  6 29  1  1  0  0  0
  7  8  1  0  0  0  0
  7 30  1  0  0  0  0
  7 31  1  0  0  0  0
  8  9  2  0  0  0  0
  8 18  1  0  0  0  0
  9 10  1  0  0  0  0
  9 32  1  0  0  0  0
 10 11  2  0  0  0  0
 10 33  1  0  0  0  0
 11 12  1  0  0  0  0
 11 17  1  0  0  0  0
 12 13  1  0  0  0  0
 12 15  1  0  0  0  0
 12 16  1  0  0  0  0
 13 14  1  0  0  0  0
 13 34  1  0  0  0  0
 13 35  1  0  0  0  0
 14 36  1  0  0  0  0
 14 37  1  0  0  0  0
 14 38  1  0  0  0  0
 15 39  1  0  0  0  0
 15 40  1  0  0  0  0
 15 41  1  0  0  0  0
 16 42  1  0  0  0  0
 16 43  1  0  0  0  0
 16 44  1  0  0  0  0
 17 18  2  0  0  0  0
 17 45  1  0  0  0  0
 18 46  1  0  0  0  0
 19 47  1  0  0  0  0
 19 48  1  0  0  0  0
 19 49  1  0  0  0  0
 20 21  1  0  0  0  0
 20 50  1  0  0  0  0
 20 51  1  0  0  0  0
 21 22  1  0  0  0  0
 21 52  1  6  0  0  0
 22 53  1  0  0  0  0
 22 54  1  0  0  0  0
 22 55  1  0  0  0  0
 23 56  1  0  0  0  0
 23 57  1  0  0  0  0
 23 58  1  0  0  0  0
M  END
$$$$
