2D_structures\o26_MMV640014_2D.pdb
 OpenBabel02252417213D

 43 46  0  0  0  0  0  0  0  0999 V2000
    6.9030   -1.5170    0.0000 O   0  0  0  0  0  0  0  0  0  0  0  0
    5.7770   -2.5070    0.0000 C   0  0  0  0  0  0  0  0  0  0  0  0
    6.0720   -3.9780    0.0000 O   0  0  0  0  0  0  0  0  0  0  0  0
    4.3560   -2.0270    0.0000 C   0  0  0  0  0  0  0  0  0  0  0  0
    4.0610   -0.5570    0.0000 C   0  0  0  0  0  0  0  0  0  0  0  0
    2.6400   -0.0770    0.0000 C   0  0  0  0  0  0  0  0  0  0  0  0
    1.5130   -1.0670    0.0000 C   0  0  0  0  0  0  0  0  0  0  0  0
    0.0920   -0.5870    0.0000 N   0  0  0  0  0  0  0  0  0  0  0  0
   -1.1310   -1.4550    0.0000 N   0  0  0  0  0  0  0  0  0  0  0  0
   -2.3350   -0.5590    0.0000 C   0  0  0  0  0  0  0  0  0  0  0  0
   -3.7660   -1.0060    0.0000 C   0  0  0  0  0  0  0  0  0  0  0  0
   -4.8690    0.0110    0.0000 C   0  0  0  0  0  0  0  0  0  0  0  0
   -4.5410    1.4740    0.0000 O   0  0  0  0  0  0  0  0  0  0  0  0
   -6.3010   -0.4360    0.0000 C   0  0  0  0  0  0  0  0  0  0  0  0
   -6.6300   -1.9000    0.0000 C   0  0  0  0  0  0  0  0  0  0  0  0
   -5.5270   -2.9160    0.0000 C   0  0  0  0  0  0  0  0  0  0  0  0
   -4.0950   -2.4700    0.0000 C   0  0  0  0  0  0  0  0  0  0  0  0
   -1.8540    0.8620    0.0000 N   0  0  0  0  0  0  0  0  0  0  0  0
   -0.3550    0.8450    0.0000 C   0  0  0  0  0  0  0  0  0  0  0  0
    0.5410    2.0480    0.0000 C   0  0  0  0  0  0  0  0  0  0  0  0
   -0.0530    3.4250    0.0000 C   0  0  0  0  0  0  0  0  0  0  0  0
   -1.5430    3.5990    0.0000 O   0  0  0  0  0  0  0  0  0  0  0  0
    0.8430    4.6280    0.0000 C   0  0  0  0  0  0  0  0  0  0  0  0
    2.3330    4.4540    0.0000 C   0  0  0  0  0  0  0  0  0  0  0  0
    2.9270    3.0770    0.0000 C   0  0  0  0  0  0  0  0  0  0  0  0
    2.0310    1.8740    0.0000 C   0  0  0  0  0  0  0  0  0  0  0  0
    1.8080   -2.5380    0.0000 C   0  0  0  0  0  0  0  0  0  0  0  0
    3.2290   -3.0180    0.0000 C   0  0  0  0  0  0  0  0  0  0  0  0
    7.4930   -4.4580    0.0000 H   0  0  0  0  0  0  0  0  0  0  0  0
    5.1870    0.4340    0.0000 H   0  0  0  0  0  0  0  0  0  0  0  0
    2.6770    0.7200    0.0000 H   0  0  0  0  0  0  0  0  0  0  0  0
   -5.6440    2.4910    0.0000 H   0  0  0  0  0  0  0  0  0  0  0  0
   -7.4040    0.5800    0.0000 H   0  0  0  0  0  0  0  0  0  0  0  0
   -8.0620   -2.3470    0.0000 H   0  0  0  0  0  0  0  0  0  0  0  0
   -5.8560   -4.3800    0.0000 H   0  0  0  0  0  0  0  0  0  0  0  0
   -2.9920   -3.4860    0.0000 H   0  0  0  0  0  0  0  0  0  0  0  0
   -2.1370    4.9770    0.0000 H   0  0  0  0  0  0  0  0  0  0  0  0
    0.2480    6.0060    0.0000 H   0  0  0  0  0  0  0  0  0  0  0  0
    3.2280    5.6580    0.0000 H   0  0  0  0  0  0  0  0  0  0  0  0
    4.4170    2.9030    0.0000 H   0  0  0  0  0  0  0  0  0  0  0  0
    2.5140    1.2400    0.0000 H   0  0  0  0  0  0  0  0  0  0  0  0
    0.6820   -3.5290    0.0000 H   0  0  0  0  0  0  0  0  0  0  0  0
    3.5240   -4.4890    0.0000 H   0  0  0  0  0  0  0  0  0  0  0  0
  1  2  2  0  0  0  0
  2  3  1  0  0  0  0
  2  4  1  0  0  0  0
  3 29  1  0  0  0  0
  4  5  2  0  0  0  0
  4 28  1  0  0  0  0
  5  6  1  0  0  0  0
  5 30  1  0  0  0  0
  6  7  2  0  0  0  0
  6 31  1  0  0  0  0
  7  8  1  0  0  0  0
  7 27  1  0  0  0  0
  8  9  1  0  0  0  0
  8 19  1  0  0  0  0
  9 10  2  0  0  0  0
 10 11  1  0  0  0  0
 10 18  1  0  0  0  0
 11 12  2  0  0  0  0
 11 17  1  0  0  0  0
 12 13  1  0  0  0  0
 12 14  1  0  0  0  0
 13 32  1  0  0  0  0
 14 15  2  0  0  0  0
 14 33  1  0  0  0  0
 15 16  1  0  0  0  0
 15 34  1  0  0  0  0
 16 17  2  0  0  0  0
 16 35  1  0  0  0  0
 17 36  1  0  0  0  0
 18 19  2  0  0  0  0
 19 20  1  0  0  0  0
 20 21  2  0  0  0  0
 20 26  1  0  0  0  0
 21 22  1  0  0  0  0
 21 23  1  0  0  0  0
 22 37  1  0  0  0  0
 23 24  2  0  0  0  0
 23 38  1  0  0  0  0
 24 25  1  0  0  0  0
 24 39  1  0  0  0  0
 25 26  2  0  0  0  0
 25 40  1  0  0  0  0
 26 41  1  0  0  0  0
 27 28  2  0  0  0  0
 27 42  1  0  0  0  0
 28 43  1  0  0  0  0
M  END
$$$$
