2D_structures\o27_MMV004508_2D.pdb
 OpenBabel02252417213D

 13 13  0  0  0  0  0  0  0  0999 V2000
   -2.0370   -1.9190    0.0000 F   0  0  0  0  0  0  0  0  0  0  0  0
   -0.8090   -1.0570    0.0000 C   0  0  0  0  0  0  0  0  0  0  0  0
   -0.9420    0.4380    0.0000 C   0  0  0  0  0  0  0  0  0  0  0  0
    0.2860    1.3000    0.0000 N   0  0  0  0  0  0  0  0  0  0  0  0
    1.6460    0.6680    0.0000 C   0  0  0  0  0  0  0  0  0  0  0  0
    2.8740    1.5300    0.0000 O   0  0  0  0  0  0  0  0  0  0  0  0
    1.7790   -0.8270    0.0000 N   0  0  0  0  0  0  0  0  0  0  0  0
    0.5510   -1.6890    0.0000 C   0  0  0  0  0  0  0  0  0  0  0  0
   -2.3020    1.0700    0.0000 N   0  0  0  0  0  0  0  0  0  0  0  0
    4.2340    0.8980    0.0000 H   0  0  0  0  0  0  0  0  0  0  0  0
    0.6840   -3.1830    0.0000 H   0  0  0  0  0  0  0  0  0  0  0  0
   -2.4350    2.5640    0.0000 H   0  0  0  0  0  0  0  0  0  0  0  0
   -3.5300    0.2080    0.0000 H   0  0  0  0  0  0  0  0  0  0  0  0
  1  2  1  0  0  0  0
  2  3  2  0  0  0  0
  2  8  1  0  0  0  0
  3  4  1  0  0  0  0
  3  9  1  0  0  0  0
  4  5  2  0  0  0  0
  5  6  1  0  0  0  0
  5  7  1  0  0  0  0
  6 10  1  0  0  0  0
  7  8  2  0  0  0  0
  8 11  1  0  0  0  0
  9 12  1  0  0  0  0
  9 13  1  0  0  0  0
M  END
$$$$
