2D_structures\o2_MMV1782108_2D.pdb
 OpenBabel02252417213D

 38 39  0  0  0  0  0  0  0  0999 V2000
   -2.3330    1.1260    0.0000 S   0  0  0  0  0  0  0  0  0  0  0  0
   -2.0580    2.6000    0.0000 O   0  0  0  0  0  0  0  0  0  0  0  0
   -2.6080   -0.3490    0.0000 O   0  0  0  0  0  0  0  0  0  0  0  0
   -3.8080    1.4010    0.0000 N   0  0  0  0  0  0  0  0  0  0  0  0
   -4.7830    0.2610    0.0000 C   0  0  0  0  0  0  0  0  0  0  0  0
   -4.4350   -1.1980    0.0000 N   0  0  0  0  0  0  0  0  0  0  0  0
   -5.7140   -1.9800    0.0000 O   0  0  0  0  0  0  0  0  0  0  0  0
   -6.8540   -1.0050    0.0000 C   0  0  0  0  0  0  0  0  0  0  0  0
   -6.2780    0.3800    0.0000 C   0  0  0  0  0  0  0  0  0  0  0  0
   -8.3130   -1.3530    0.0000 C   0  0  0  0  0  0  0  0  0  0  0  0
   -0.8590    0.8510    0.0000 C   0  0  0  0  0  0  0  0  0  0  0  0
   -0.3590   -0.5640    0.0000 C   0  0  0  0  0  0  0  0  0  0  0  0
    1.1150   -0.8390    0.0000 C   0  0  0  0  0  0  0  0  0  0  0  0
    2.0910    0.3010    0.0000 C   0  0  0  0  0  0  0  0  0  0  0  0
    3.5650    0.0260    0.0000 C   0  0  0  0  0  0  0  0  0  0  0  0
    5.0400   -0.2490    0.0000 C   0  0  0  0  0  0  0  0  0  0  0  0
    6.5140   -0.5240    0.0000 C   0  0  0  0  0  0  0  0  0  0  0  0
    7.9890   -0.7990    0.0000 C   0  0  0  0  0  0  0  0  0  0  0  0
    1.5910    1.7150    0.0000 C   0  0  0  0  0  0  0  0  0  0  0  0
    0.1170    1.9900    0.0000 C   0  0  0  0  0  0  0  0  0  0  0  0
   -4.3070    2.8150    0.0000 H   0  0  0  0  0  0  0  0  0  0  0  0
   -7.0610    1.6600    0.0000 H   0  0  0  0  0  0  0  0  0  0  0  0
   -9.7720   -1.7020    0.0000 H   0  0  0  0  0  0  0  0  0  0  0  0
   -8.6610    0.1060    0.0000 H   0  0  0  0  0  0  0  0  0  0  0  0
   -7.9640   -2.8120    0.0000 H   0  0  0  0  0  0  0  0  0  0  0  0
   -1.3350   -1.7030    0.0000 H   0  0  0  0  0  0  0  0  0  0  0  0
    1.6140   -2.2530    0.0000 H   0  0  0  0  0  0  0  0  0  0  0  0
    3.8400    1.5010    0.0000 H   0  0  0  0  0  0  0  0  0  0  0  0
    3.2900   -1.4490    0.0000 H   0  0  0  0  0  0  0  0  0  0  0  0
    4.7650   -1.7230    0.0000 H   0  0  0  0  0  0  0  0  0  0  0  0
    5.3150    1.2260    0.0000 H   0  0  0  0  0  0  0  0  0  0  0  0
    6.7890    0.9510    0.0000 H   0  0  0  0  0  0  0  0  0  0  0  0
    6.2390   -1.9980    0.0000 H   0  0  0  0  0  0  0  0  0  0  0  0
    9.4640   -1.0740    0.0000 H   0  0  0  0  0  0  0  0  0  0  0  0
    7.7140   -2.2730    0.0000 H   0  0  0  0  0  0  0  0  0  0  0  0
    8.2640    0.6760    0.0000 H   0  0  0  0  0  0  0  0  0  0  0  0
    2.5670    2.8550    0.0000 H   0  0  0  0  0  0  0  0  0  0  0  0
   -0.3820    3.4050    0.0000 H   0  0  0  0  0  0  0  0  0  0  0  0
  1  2  2  0  0  0  0
  1  3  2  0  0  0  0
  1  4  1  0  0  0  0
  1 11  1  0  0  0  0
  4  5  1  0  0  0  0
  4 21  1  0  0  0  0
  5  6  2  0  0  0  0
  5  9  1  0  0  0  0
  6  7  1  0  0  0  0
  7  8  1  0  0  0  0
  8  9  2  0  0  0  0
  8 10  1  0  0  0  0
  9 22  1  0  0  0  0
 10 23  1  0  0  0  0
 10 24  1  0  0  0  0
 10 25  1  0  0  0  0
 11 12  2  0  0  0  0
 11 20  1  0  0  0  0
 12 13  1  0  0  0  0
 12 26  1  0  0  0  0
 13 14  2  0  0  0  0
 13 27  1  0  0  0  0
 14 15  1  0  0  0  0
 14 19  1  0  0  0  0
 15 16  1  0  0  0  0
 15 28  1  0  0  0  0
 15 29  1  0  0  0  0
 16 17  1  0  0  0  0
 16 30  1  0  0  0  0
 16 31  1  0  0  0  0
 17 18  1  0  0  0  0
 17 32  1  0  0  0  0
 17 33  1  0  0  0  0
 18 34  1  0  0  0  0
 18 35  1  0  0  0  0
 18 36  1  0  0  0  0
 19 20  2  0  0  0  0
 19 37  1  0  0  0  0
 20 38  1  0  0  0  0
M  END
$$$$
