2D_structures\o33_MMV1782223_2D.pdb
 OpenBabel02252417213D

 19 19  0  0  0  0  0  0  0  0999 V2000
    1.9340   -1.2990    0.0000 C   0  0  0  0  0  0  0  0  0  0  0  0
    1.1840    0.0000    0.0000 N   0  0  0  0  0  0  0  0  0  0  0  0
    1.9340    1.2990    0.0000 C   0  0  0  0  0  0  0  0  0  0  0  0
   -0.3160    0.0000    0.0000 C   0  0  0  0  0  0  0  0  0  0  0  0
   -1.0660   -1.2990    0.0000 C   0  0  0  0  0  0  0  0  0  0  0  0
   -0.3160   -2.5980    0.0000 F   0  0  0  0  0  0  0  0  0  0  0  0
   -2.5660   -1.2990    0.0000 C   0  0  0  0  0  0  0  0  0  0  0  0
   -3.3160    0.0000    0.0000 N   0  0  0  0  0  0  0  0  0  0  0  0
   -2.5660    1.2990    0.0000 C   0  0  0  0  0  0  0  0  0  0  0  0
   -3.3160    2.5980    0.0000 O   0  0  0  0  0  0  0  0  0  0  0  0
   -1.0660    1.2990    0.0000 N   0  0  0  0  0  0  0  0  0  0  0  0
    2.6840   -2.5980    0.0000 H   0  0  0  0  0  0  0  0  0  0  0  0
    3.2330   -0.5490    0.0000 H   0  0  0  0  0  0  0  0  0  0  0  0
    0.6350   -2.0490    0.0000 H   0  0  0  0  0  0  0  0  0  0  0  0
    2.6840    2.5980    0.0000 H   0  0  0  0  0  0  0  0  0  0  0  0
    3.2330    0.5490    0.0000 H   0  0  0  0  0  0  0  0  0  0  0  0
    0.6350    2.0490    0.0000 H   0  0  0  0  0  0  0  0  0  0  0  0
   -3.3160   -2.5980    0.0000 H   0  0  0  0  0  0  0  0  0  0  0  0
   -0.3160    2.5980    0.0000 H   0  0  0  0  0  0  0  0  0  0  0  0
  1  2  1  0  0  0  0
  1 12  1  0  0  0  0
  1 13  1  0  0  0  0
  1 14  1  0  0  0  0
  2  3  1  0  0  0  0
  2  4  1  0  0  0  0
  3 15  1  0  0  0  0
  3 16  1  0  0  0  0
  3 17  1  0  0  0  0
  4  5  2  0  0  0  0
  4 11  1  0  0  0  0
  5  6  1  0  0  0  0
  5  7  1  0  0  0  0
  7  8  2  0  0  0  0
  7 18  1  0  0  0  0
  8  9  1  0  0  0  0
  9 10  2  0  0  0  0
  9 11  1  0  0  0  0
 11 19  1  0  0  0  0
M  END
$$$$
