2D_structures\o34_MMV1782218_2D.pdb
 OpenBabel02252417213D

 37 39  0  0  0  0  0  0  0  0999 V2000
   -7.9640   -1.0590    0.0000 Cl  0  0  0  0  0  0  0  0  0  0  0  0
   -6.5790   -0.4840    0.0000 C   0  0  0  0  0  0  0  0  0  0  0  0
   -6.3840    1.0030    0.0000 C   0  0  0  0  0  0  0  0  0  0  0  0
   -4.9980    1.5780    0.0000 C   0  0  0  0  0  0  0  0  0  0  0  0
   -3.8080    0.6660    0.0000 C   0  0  0  0  0  0  0  0  0  0  0  0
   -2.4220    1.2400    0.0000 C   0  0  0  0  0  0  0  0  0  0  0  0
   -2.2270    2.7280    0.0000 O   0  0  0  0  0  0  0  0  0  0  0  0
   -1.2320    0.3280    0.0000 N   0  0  0  0  0  0  0  0  0  0  0  0
    0.1540    0.9020    0.0000 C   0  0  0  0  0  0  0  0  0  0  0  0
    0.3490    2.3900    0.0000 O   0  0  0  0  0  0  0  0  0  0  0  0
    1.3440   -0.0100    0.0000 N   0  0  0  0  0  0  0  0  0  0  0  0
    1.1490   -1.4970    0.0000 C   0  0  0  0  0  0  0  0  0  0  0  0
    2.3400   -2.4100    0.0000 C   0  0  0  0  0  0  0  0  0  0  0  0
    3.7250   -1.8350    0.0000 C   0  0  0  0  0  0  0  0  0  0  0  0
    3.9200   -0.3480    0.0000 C   0  0  0  0  0  0  0  0  0  0  0  0
    5.3060    0.2270    0.0000 C   0  0  0  0  0  0  0  0  0  0  0  0
    5.5010    1.7140    0.0000 C   0  0  0  0  0  0  0  0  0  0  0  0
    4.3100    2.6270    0.0000 C   0  0  0  0  0  0  0  0  0  0  0  0
    2.9250    2.0520    0.0000 C   0  0  0  0  0  0  0  0  0  0  0  0
    2.7300    0.5650    0.0000 C   0  0  0  0  0  0  0  0  0  0  0  0
   -4.0030   -0.8220    0.0000 C   0  0  0  0  0  0  0  0  0  0  0  0
   -2.8120   -1.7340    0.0000 Cl  0  0  0  0  0  0  0  0  0  0  0  0
   -5.3880   -1.3960    0.0000 C   0  0  0  0  0  0  0  0  0  0  0  0
   -7.5740    1.9160    0.0000 H   0  0  0  0  0  0  0  0  0  0  0  0
   -4.8030    3.0650    0.0000 H   0  0  0  0  0  0  0  0  0  0  0  0
   -1.4270   -1.1600    0.0000 H   0  0  0  0  0  0  0  0  0  0  0  0
    0.4570   -2.8280    0.0000 H   0  0  0  0  0  0  0  0  0  0  0  0
   -0.2820   -1.0470    0.0000 H   0  0  0  0  0  0  0  0  0  0  0  0
    3.1460   -3.6750    0.0000 H   0  0  0  0  0  0  0  0  0  0  0  0
    1.2340   -3.4240    0.0000 H   0  0  0  0  0  0  0  0  0  0  0  0
    5.2240   -1.7690    0.0000 H   0  0  0  0  0  0  0  0  0  0  0  0
    4.0510   -3.2990    0.0000 H   0  0  0  0  0  0  0  0  0  0  0  0
    6.4960   -0.6860    0.0000 H   0  0  0  0  0  0  0  0  0  0  0  0
    6.8860    2.2890    0.0000 H   0  0  0  0  0  0  0  0  0  0  0  0
    4.5050    4.1140    0.0000 H   0  0  0  0  0  0  0  0  0  0  0  0
    1.7340    2.9640    0.0000 H   0  0  0  0  0  0  0  0  0  0  0  0
   -5.5830   -2.8840    0.0000 H   0  0  0  0  0  0  0  0  0  0  0  0
  1  2  1  0  0  0  0
  2  3  2  0  0  0  0
  2 23  1  0  0  0  0
  3  4  1  0  0  0  0
  3 24  1  0  0  0  0
  4  5  2  0  0  0  0
  4 25  1  0  0  0  0
  5  6  1  0  0  0  0
  5 21  1  0  0  0  0
  6  7  2  0  0  0  0
  6  8  1  0  0  0  0
  8  9  1  0  0  0  0
  8 26  1  0  0  0  0
  9 10  2  0  0  0  0
  9 11  1  0  0  0  0
 11 12  1  0  0  0  0
 11 20  1  0  0  0  0
 12 13  1  0  0  0  0
 12 27  1  0  0  0  0
 12 28  1  0  0  0  0
 13 14  1  0  0  0  0
 13 29  1  0  0  0  0
 13 30  1  0  0  0  0
 14 15  1  0  0  0  0
 14 31  1  0  0  0  0
 14 32  1  0  0  0  0
 15 16  2  0  0  0  0
 15 20  1  0  0  0  0
 16 17  1  0  0  0  0
 16 33  1  0  0  0  0
 17 18  2  0  0  0  0
 17 34  1  0  0  0  0
 18 19  1  0  0  0  0
 18 35  1  0  0  0  0
 19 20  2  0  0  0  0
 19 36  1  0  0  0  0
 21 22  1  0  0  0  0
 21 23  2  0  0  0  0
 23 37  1  0  0  0  0
M  END
$$$$
