2D_structures\o36_MMV1782216_2D.pdb
 OpenBabel02252417213D

 37 38  0  0  0  0  0  0  0  0999 V2000
    5.6380   -2.5790    0.0000 C   0  0  0  0  0  0  0  0  0  0  0  0
    4.9780   -1.2320    0.0000 C   0  0  0  0  0  0  0  0  0  0  0  0
    4.3180    0.1150    0.0000 C   0  0  0  0  0  0  0  0  0  0  0  0
    3.6570    1.4620    0.0000 N   0  0  0  0  0  0  0  0  0  0  0  0
    2.1610    1.5630    0.0000 C   0  0  0  0  0  0  0  0  0  0  0  0
    1.3250    0.3180    0.0000 C   0  0  0  0  0  0  0  0  0  0  0  0
   -0.1720    0.4200    0.0000 C   0  0  0  0  0  0  0  0  0  0  0  0
   -0.8320    1.7670    0.0000 C   0  0  0  0  0  0  0  0  0  0  0  0
    0.0040    3.0120    0.0000 C   0  0  0  0  0  0  0  0  0  0  0  0
    1.5010    2.9100    0.0000 C   0  0  0  0  0  0  0  0  0  0  0  0
   -2.3290    1.8680    0.0000 S   0  0  0  0  0  0  0  0  0  0  0  0
   -2.2270    3.3650    0.0000 O   0  0  0  0  0  0  0  0  0  0  0  0
   -2.4300    0.3720    0.0000 O   0  0  0  0  0  0  0  0  0  0  0  0
   -3.8250    1.9700    0.0000 N   0  0  0  0  0  0  0  0  0  0  0  0
   -4.6620    0.7250    0.0000 C   0  0  0  0  0  0  0  0  0  0  0  0
   -4.1460   -0.6840    0.0000 C   0  0  0  0  0  0  0  0  0  0  0  0
   -5.3260   -1.6100    0.0000 C   0  0  0  0  0  0  0  0  0  0  0  0
   -5.2710   -3.1090    0.0000 C   0  0  0  0  0  0  0  0  0  0  0  0
   -6.5710   -0.7730    0.0000 O   0  0  0  0  0  0  0  0  0  0  0  0
   -6.1610    0.6690    0.0000 N   0  0  0  0  0  0  0  0  0  0  0  0
    6.2980   -3.9260    0.0000 H   0  0  0  0  0  0  0  0  0  0  0  0
    6.9850   -1.9190    0.0000 H   0  0  0  0  0  0  0  0  0  0  0  0
    4.2910   -3.2390    0.0000 H   0  0  0  0  0  0  0  0  0  0  0  0
    6.3250   -0.5720    0.0000 H   0  0  0  0  0  0  0  0  0  0  0  0
    3.6310   -1.8920    0.0000 H   0  0  0  0  0  0  0  0  0  0  0  0
    2.9710   -0.5450    0.0000 H   0  0  0  0  0  0  0  0  0  0  0  0
    5.6650    0.7750    0.0000 H   0  0  0  0  0  0  0  0  0  0  0  0
    4.4940    2.7070    0.0000 H   0  0  0  0  0  0  0  0  0  0  0  0
    1.9850   -1.0290    0.0000 H   0  0  0  0  0  0  0  0  0  0  0  0
   -1.0080   -0.8250    0.0000 H   0  0  0  0  0  0  0  0  0  0  0  0
   -0.6560    4.3590    0.0000 H   0  0  0  0  0  0  0  0  0  0  0  0
    2.3370    4.1560    0.0000 H   0  0  0  0  0  0  0  0  0  0  0  0
   -4.4860    3.3170    0.0000 H   0  0  0  0  0  0  0  0  0  0  0  0
   -2.7030   -1.0940    0.0000 H   0  0  0  0  0  0  0  0  0  0  0  0
   -5.2150   -4.6080    0.0000 H   0  0  0  0  0  0  0  0  0  0  0  0
   -6.7700   -3.1640    0.0000 H   0  0  0  0  0  0  0  0  0  0  0  0
   -3.7720   -3.0530    0.0000 H   0  0  0  0  0  0  0  0  0  0  0  0
  1  2  1  0  0  0  0
  1 21  1  0  0  0  0
  1 22  1  0  0  0  0
  1 23  1  0  0  0  0
  2  3  1  0  0  0  0
  2 24  1  0  0  0  0
  2 25  1  0  0  0  0
  3  4  1  0  0  0  0
  3 26  1  0  0  0  0
  3 27  1  0  0  0  0
  4  5  1  0  0  0  0
  4 28  1  0  0  0  0
  5  6  2  0  0  0  0
  5 10  1  0  0  0  0
  6  7  1  0  0  0  0
  6 29  1  0  0  0  0
  7  8  2  0  0  0  0
  7 30  1  0  0  0  0
  8  9  1  0  0  0  0
  8 11  1  0  0  0  0
  9 10  2  0  0  0  0
  9 31  1  0  0  0  0
 10 32  1  0  0  0  0
 11 12  2  0  0  0  0
 11 13  2  0  0  0  0
 11 14  1  0  0  0  0
 14 15  1  0  0  0  0
 14 33  1  0  0  0  0
 15 16  1  0  0  0  0
 15 20  2  0  0  0  0
 16 17  2  0  0  0  0
 16 34  1  0  0  0  0
 17 18  1  0  0  0  0
 17 19  1  0  0  0  0
 18 35  1  0  0  0  0
 18 36  1  0  0  0  0
 18 37  1  0  0  0  0
 19 20  1  0  0  0  0
M  END
$$$$
