2D_structures\o37_MMV1009286_2D.pdb
 OpenBabel02252417213D

 39 40  0  0  0  0  0  0  0  0999 V2000
   -5.2060   -2.4510    0.0000 C   0  0  0  0  0  0  0  0  0  0  0  0
   -5.0040   -0.9650    0.0000 C   0  0  0  0  0  0  0  0  0  0  0  0
   -4.8020    0.5220    0.0000 C   0  0  0  0  0  0  0  0  0  0  0  0
   -3.5170   -1.1670    0.0000 O   0  0  0  0  0  0  0  0  0  0  0  0
   -2.5990    0.0190    0.0000 C   0  0  0  0  0  0  0  0  0  0  0  0
   -3.1670    1.4080    0.0000 C   0  0  0  0  0  0  0  0  0  0  0  0
   -2.2490    2.5940    0.0000 C   0  0  0  0  0  0  0  0  0  0  0  0
   -0.7630    2.3910    0.0000 C   0  0  0  0  0  0  0  0  0  0  0  0
   -0.1950    1.0030    0.0000 C   0  0  0  0  0  0  0  0  0  0  0  0
    1.2920    0.8010    0.0000 N   0  0  0  0  0  0  0  0  0  0  0  0
    1.8600   -0.5870    0.0000 C   0  0  0  0  0  0  0  0  0  0  0  0
    0.9410   -1.7730    0.0000 O   0  0  0  0  0  0  0  0  0  0  0  0
    3.3460   -0.7890    0.0000 C   0  0  0  0  0  0  0  0  0  0  0  0
    3.9140   -2.1780    0.0000 C   0  0  0  0  0  0  0  0  0  0  0  0
    5.4000   -2.3800    0.0000 C   0  0  0  0  0  0  0  0  0  0  0  0
    6.3190   -1.1940    0.0000 C   0  0  0  0  0  0  0  0  0  0  0  0
    5.7510    0.1940    0.0000 C   0  0  0  0  0  0  0  0  0  0  0  0
    4.2640    0.3970    0.0000 C   0  0  0  0  0  0  0  0  0  0  0  0
    3.6960    1.7850    0.0000 C   0  0  0  0  0  0  0  0  0  0  0  0
    3.1280    3.1730    0.0000 F   0  0  0  0  0  0  0  0  0  0  0  0
    5.0850    2.3530    0.0000 F   0  0  0  0  0  0  0  0  0  0  0  0
    2.2490    1.3900    0.0000 F   0  0  0  0  0  0  0  0  0  0  0  0
   -1.1130   -0.1830    0.0000 C   0  0  0  0  0  0  0  0  0  0  0  0
   -5.4080   -3.9370    0.0000 H   0  0  0  0  0  0  0  0  0  0  0  0
   -6.6920   -2.2490    0.0000 H   0  0  0  0  0  0  0  0  0  0  0  0
   -3.7200   -2.6530    0.0000 H   0  0  0  0  0  0  0  0  0  0  0  0
   -6.4900   -0.7620    0.0000 H   0  0  0  0  0  0  0  0  0  0  0  0
   -4.7910    1.3190    0.0000 H   0  0  0  0  0  0  0  0  0  0  0  0
   -3.5940    0.6540    0.0000 H   0  0  0  0  0  0  0  0  0  0  0  0
   -6.2880    0.7240    0.0000 H   0  0  0  0  0  0  0  0  0  0  0  0
   -3.9380    1.6100    0.0000 H   0  0  0  0  0  0  0  0  0  0  0  0
   -2.8170    3.9820    0.0000 H   0  0  0  0  0  0  0  0  0  0  0  0
    0.1560    3.5780    0.0000 H   0  0  0  0  0  0  0  0  0  0  0  0
    2.0590    2.0900    0.0000 H   0  0  0  0  0  0  0  0  0  0  0  0
    2.9960   -3.3640    0.0000 H   0  0  0  0  0  0  0  0  0  0  0  0
    5.9680   -3.7680    0.0000 H   0  0  0  0  0  0  0  0  0  0  0  0
    7.8050   -1.3960    0.0000 H   0  0  0  0  0  0  0  0  0  0  0  0
    6.6690    1.3810    0.0000 H   0  0  0  0  0  0  0  0  0  0  0  0
   -0.5450   -1.5710    0.0000 H   0  0  0  0  0  0  0  0  0  0  0  0
  1  2  1  0  0  0  0
  1 24  1  0  0  0  0
  1 25  1  0  0  0  0
  1 26  1  0  0  0  0
  2  3  1  0  0  0  0
  2  4  1  0  0  0  0
  2 27  1  0  0  0  0
  3 28  1  0  0  0  0
  3 29  1  0  0  0  0
  3 30  1  0  0  0  0
  4  5  1  0  0  0  0
  5  6  2  0  0  0  0
  5 23  1  0  0  0  0
  6  7  1  0  0  0  0
  6 31  1  0  0  0  0
  7  8  2  0  0  0  0
  7 32  1  0  0  0  0
  8  9  1  0  0  0  0
  8 33  1  0  0  0  0
  9 10  1  0  0  0  0
  9 23  2  0  0  0  0
 10 11  1  0  0  0  0
 10 34  1  0  0  0  0
 11 12  2  0  0  0  0
 11 13  1  0  0  0  0
 13 14  2  0  0  0  0
 13 18  1  0  0  0  0
 14 15  1  0  0  0  0
 14 35  1  0  0  0  0
 15 16  2  0  0  0  0
 15 36  1  0  0  0  0
 16 17  1  0  0  0  0
 16 37  1  0  0  0  0
 17 18  2  0  0  0  0
 17 38  1  0  0  0  0
 18 19  1  0  0  0  0
 19 20  1  0  0  0  0
 19 21  1  0  0  0  0
 19 22  1  0  0  0  0
 23 39  1  0  0  0  0
M  END
$$$$
