2D_structures\o38_MMV1782225_2D.pdb
 OpenBabel02252417213D

 25 26  0  0  0  0  0  0  0  0999 V2000
    2.7550   -2.7680    0.0000 F   0  0  0  0  0  0  0  0  0  0  0  0
    3.2230   -1.3430    0.0000 C   0  0  0  0  0  0  0  0  0  0  0  0
    2.2230   -0.2250    0.0000 C   0  0  0  0  0  0  0  0  0  0  0  0
    0.7550   -0.5320    0.0000 N   0  0  0  0  0  0  0  0  0  0  0  0
   -0.2450    0.5860    0.0000 C   0  0  0  0  0  0  0  0  0  0  0  0
    0.2230    2.0110    0.0000 O   0  0  0  0  0  0  0  0  0  0  0  0
   -1.7130    0.2790    0.0000 C   0  0  0  0  0  0  0  0  0  0  0  0
   -2.7130    1.3970    0.0000 C   0  0  0  0  0  0  0  0  0  0  0  0
   -4.1820    1.0890    0.0000 C   0  0  0  0  0  0  0  0  0  0  0  0
   -4.6500   -0.3360    0.0000 C   0  0  0  0  0  0  0  0  0  0  0  0
   -3.6500   -1.4540    0.0000 C   0  0  0  0  0  0  0  0  0  0  0  0
   -2.1810   -1.1460    0.0000 C   0  0  0  0  0  0  0  0  0  0  0  0
    2.6910    1.2000    0.0000 N   0  0  0  0  0  0  0  0  0  0  0  0
    4.1600    1.5070    0.0000 C   0  0  0  0  0  0  0  0  0  0  0  0
    4.6280    2.9320    0.0000 O   0  0  0  0  0  0  0  0  0  0  0  0
    5.1600    0.3890    0.0000 N   0  0  0  0  0  0  0  0  0  0  0  0
    4.6920   -1.0360    0.0000 C   0  0  0  0  0  0  0  0  0  0  0  0
    0.2870   -1.9570    0.0000 H   0  0  0  0  0  0  0  0  0  0  0  0
   -2.2450    2.8220    0.0000 H   0  0  0  0  0  0  0  0  0  0  0  0
   -5.1820    2.2070    0.0000 H   0  0  0  0  0  0  0  0  0  0  0  0
   -6.1180   -0.6430    0.0000 H   0  0  0  0  0  0  0  0  0  0  0  0
   -4.1180   -2.8790    0.0000 H   0  0  0  0  0  0  0  0  0  0  0  0
   -1.1810   -2.2640    0.0000 H   0  0  0  0  0  0  0  0  0  0  0  0
    1.6910    2.3180    0.0000 H   0  0  0  0  0  0  0  0  0  0  0  0
    5.6920   -2.1540    0.0000 H   0  0  0  0  0  0  0  0  0  0  0  0
  1  2  1  0  0  0  0
  2  3  2  0  0  0  0
  2 17  1  0  0  0  0
  3  4  1  0  0  0  0
  3 13  1  0  0  0  0
  4  5  1  0  0  0  0
  4 18  1  0  0  0  0
  5  6  2  0  0  0  0
  5  7  1  0  0  0  0
  7  8  2  0  0  0  0
  7 12  1  0  0  0  0
  8  9  1  0  0  0  0
  8 19  1  0  0  0  0
  9 10  2  0  0  0  0
  9 20  1  0  0  0  0
 10 11  1  0  0  0  0
 10 21  1  0  0  0  0
 11 12  2  0  0  0  0
 11 22  1  0  0  0  0
 12 23  1  0  0  0  0
 13 14  1  0  0  0  0
 13 24  1  0  0  0  0
 14 15  2  0  0  0  0
 14 16  1  0  0  0  0
 16 17  2  0  0  0  0
 17 25  1  0  0  0  0
M  END
$$$$
