2D_structures\o39_MMV1782354_2D.pdb
 OpenBabel02252417213D

 64 68  0  0  0  0  0  0  0  0999 V2000
    6.1160   -4.3920    0.0000 C   0  0  0  0  0  0  0  0  0  0  0  0
    6.0410   -2.8940    0.0000 C   0  0  0  0  0  0  0  0  0  0  0  0
    7.2090   -1.9530    0.0000 C   0  0  0  0  0  0  0  0  0  0  0  0
    6.6750   -0.5510    0.0000 C   0  0  0  0  0  0  0  0  0  0  0  0
    7.4950    0.7050    0.0000 C   0  0  0  0  0  0  0  0  0  0  0  0
    6.8180    2.0430    0.0000 C   0  0  0  0  0  0  0  0  0  0  0  0
    7.6380    3.2990    0.0000 C   0  0  0  0  0  0  0  0  0  0  0  0
    9.1360    3.2170    0.0000 C   0  0  0  0  0  0  0  0  0  0  0  0
    9.8130    1.8790    0.0000 C   0  0  0  0  0  0  0  0  0  0  0  0
    8.9930    0.6230    0.0000 C   0  0  0  0  0  0  0  0  0  0  0  0
    5.1770   -0.6260    0.0000 C   0  0  0  0  0  0  0  0  0  0  0  0
    4.2360    0.5420    0.0000 C   0  0  0  0  0  0  0  0  0  0  0  0
    4.5660    1.8510    0.0000 O   0  0  0  0  0  0  0  0  0  0  0  0
    2.7540    0.3110    0.0000 C   0  0  0  0  0  0  0  0  0  0  0  0
    2.1810   -0.7600    0.0000 O   0  0  0  0  0  0  0  0  0  0  0  0
    1.8130    1.4800    0.0000 N   0  0  0  0  0  0  0  0  0  0  0  0
    0.3310    1.2490    0.0000 C   0  0  0  0  0  0  0  0  0  0  0  0
   -0.6100    2.4170    0.0000 C   0  0  0  0  0  0  0  0  0  0  0  0
   -2.0920    2.1860    0.0000 C   0  0  0  0  0  0  0  0  0  0  0  0
   -2.6340    0.7870    0.0000 C   0  0  0  0  0  0  0  0  0  0  0  0
   -1.6920   -0.3810    0.0000 C   0  0  0  0  0  0  0  0  0  0  0  0
   -0.2100   -0.1500    0.0000 C   0  0  0  0  0  0  0  0  0  0  0  0
   -4.1160    0.5560    0.0000 N   0  0  0  0  0  0  0  0  0  0  0  0
   -5.0570    1.7240    0.0000 C   0  0  0  0  0  0  0  0  0  0  0  0
   -6.5390    1.4930    0.0000 C   0  0  0  0  0  0  0  0  0  0  0  0
   -7.0800    0.0940    0.0000 N   0  0  0  0  0  0  0  0  0  0  0  0
   -6.1390   -1.0740    0.0000 C   0  0  0  0  0  0  0  0  0  0  0  0
   -4.6570   -0.8430    0.0000 C   0  0  0  0  0  0  0  0  0  0  0  0
   -8.5620   -0.1370    0.0000 C   0  0  0  0  0  0  0  0  0  0  0  0
   -9.5030    1.0310    0.0000 N   0  0  0  0  0  0  0  0  0  0  0  0
  -10.9850    0.8000    0.0000 C   0  0  0  0  0  0  0  0  0  0  0  0
  -11.5260   -0.5990    0.0000 C   0  0  0  0  0  0  0  0  0  0  0  0
  -13.0080   -0.8290    0.0000 F   0  0  0  0  0  0  0  0  0  0  0  0
  -10.5850   -1.7670    0.0000 C   0  0  0  0  0  0  0  0  0  0  0  0
   -9.1030   -1.5360    0.0000 N   0  0  0  0  0  0  0  0  0  0  0  0
    4.7850   -2.0740    0.0000 N   0  0  0  0  0  0  0  0  0  0  0  0
    3.3830   -2.6080    0.0000 C   0  0  0  0  0  0  0  0  0  0  0  0
    6.1910   -5.8900    0.0000 H   0  0  0  0  0  0  0  0  0  0  0  0
    4.6380   -4.6490    0.0000 H   0  0  0  0  0  0  0  0  0  0  0  0
    7.6140   -4.3170    0.0000 H   0  0  0  0  0  0  0  0  0  0  0  0
    8.6570   -2.3450    0.0000 H   0  0  0  0  0  0  0  0  0  0  0  0
    5.4890    2.2810    0.0000 H   0  0  0  0  0  0  0  0  0  0  0  0
    6.9600    4.6370    0.0000 H   0  0  0  0  0  0  0  0  0  0  0  0
    9.9560    4.4730    0.0000 H   0  0  0  0  0  0  0  0  0  0  0  0
   11.3110    1.7960    0.0000 H   0  0  0  0  0  0  0  0  0  0  0  0
    9.6710   -0.7160    0.0000 H   0  0  0  0  0  0  0  0  0  0  0  0
    2.3540    2.8790    0.0000 H   0  0  0  0  0  0  0  0  0  0  0  0
   -0.0690    3.8160    0.0000 H   0  0  0  0  0  0  0  0  0  0  0  0
   -3.0330    3.3540    0.0000 H   0  0  0  0  0  0  0  0  0  0  0  0
   -2.2340   -1.7800    0.0000 H   0  0  0  0  0  0  0  0  0  0  0  0
    0.7310   -1.3180    0.0000 H   0  0  0  0  0  0  0  0  0  0  0  0
   -5.5410    3.1440    0.0000 H   0  0  0  0  0  0  0  0  0  0  0  0
   -3.7430    2.4480    0.0000 H   0  0  0  0  0  0  0  0  0  0  0  0
   -8.0110    1.7830    0.0000 H   0  0  0  0  0  0  0  0  0  0  0  0
   -6.5090    2.9930    0.0000 H   0  0  0  0  0  0  0  0  0  0  0  0
   -5.6540   -2.4930    0.0000 H   0  0  0  0  0  0  0  0  0  0  0  0
   -7.4530   -1.7980    0.0000 H   0  0  0  0  0  0  0  0  0  0  0  0
   -3.1850   -1.1330    0.0000 H   0  0  0  0  0  0  0  0  0  0  0  0
   -4.6870   -2.3430    0.0000 H   0  0  0  0  0  0  0  0  0  0  0  0
  -11.9260    1.9690    0.0000 H   0  0  0  0  0  0  0  0  0  0  0  0
  -11.1260   -3.1660    0.0000 H   0  0  0  0  0  0  0  0  0  0  0  0
    1.9820   -3.1420    0.0000 H   0  0  0  0  0  0  0  0  0  0  0  0
    2.8160   -1.5330    0.0000 H   0  0  0  0  0  0  0  0  0  0  0  0
    3.7430   -4.0640    0.0000 H   0  0  0  0  0  0  0  0  0  0  0  0
  1  2  1  0  0  0  0
  1 38  1  0  0  0  0
  1 39  1  0  0  0  0
  1 40  1  0  0  0  0
  2  3  2  0  0  0  0
  2 36  1  0  0  0  0
  3  4  1  0  0  0  0
  3 41  1  0  0  0  0
  4  5  1  0  0  0  0
  4 11  2  0  0  0  0
  5  6  2  0  0  0  0
  5 10  1  0  0  0  0
  6  7  1  0  0  0  0
  6 42  1  0  0  0  0
  7  8  2  0  0  0  0
  7 43  1  0  0  0  0
  8  9  1  0  0  0  0
  8 44  1  0  0  0  0
  9 10  2  0  0  0  0
  9 45  1  0  0  0  0
 10 46  1  0  0  0  0
 11 12  1  0  0  0  0
 11 36  1  0  0  0  0
 12 13  2  0  0  0  0
 12 14  1  0  0  0  0
 14 15  2  0  0  0  0
 14 16  1  0  0  0  0
 16 17  1  0  0  0  0
 16 47  1  0  0  0  0
 17 18  2  0  0  0  0
 17 22  1  0  0  0  0
 18 19  1  0  0  0  0
 18 48  1  0  0  0  0
 19 20  2  0  0  0  0
 19 49  1  0  0  0  0
 20 21  1  0  0  0  0
 20 23  1  0  0  0  0
 21 22  2  0  0  0  0
 21 50  1  0  0  0  0
 22 51  1  0  0  0  0
 23 24  1  0  0  0  0
 23 28  1  0  0  0  0
 24 25  1  0  0  0  0
 24 52  1  0  0  0  0
 24 53  1  0  0  0  0
 25 26  1  0  0  0  0
 25 54  1  0  0  0  0
 25 55  1  0  0  0  0
 26 27  1  0  0  0  0
 26 29  1  0  0  0  0
 27 28  1  0  0  0  0
 27 56  1  0  0  0  0
 27 57  1  0  0  0  0
 28 58  1  0  0  0  0
 28 59  1  0  0  0  0
 29 30  2  0  0  0  0
 29 35  1  0  0  0  0
 30 31  1  0  0  0  0
 31 32  2  0  0  0  0
 31 60  1  0  0  0  0
 32 33  1  0  0  0  0
 32 34  1  0  0  0  0
 34 35  2  0  0  0  0
 34 61  1  0  0  0  0
 36 37  1  0  0  0  0
 37 62  1  0  0  0  0
 37 63  1  0  0  0  0
 37 64  1  0  0  0  0
M  END
$$$$
