2D_structures\o40_MMV689401_2D.pdb
 OpenBabel02252417213D

 31 32  0  0  0  0  0  0  0  0999 V2000
    7.9440   -0.6810    0.0000 F   0  0  0  0  0  0  0  0  0  0  0  0
    6.4590   -0.4670    0.0000 C   0  0  0  0  0  0  0  0  0  0  0  0
    6.2450   -1.9520    0.0000 F   0  0  0  0  0  0  0  0  0  0  0  0
    6.6740    1.0180    0.0000 F   0  0  0  0  0  0  0  0  0  0  0  0
    4.9750   -0.2530    0.0000 C   0  0  0  0  0  0  0  0  0  0  0  0
    4.0470   -1.4310    0.0000 C   0  0  0  0  0  0  0  0  0  0  0  0
    2.5620   -1.2170    0.0000 N   0  0  0  0  0  0  0  0  0  0  0  0
    2.0050    0.1760    0.0000 C   0  0  0  0  0  0  0  0  0  0  0  0
    0.5210    0.3910    0.0000 C   0  0  0  0  0  0  0  0  0  0  0  0
   -0.9640    0.6050    0.0000 N   0  0  0  0  0  0  0  0  0  0  0  0
   -1.8920   -0.5740    0.0000 C   0  0  0  0  0  0  0  0  0  0  0  0
   -1.3350   -1.9670    0.0000 O   0  0  0  0  0  0  0  0  0  0  0  0
   -3.3760   -0.3590    0.0000 C   0  0  0  0  0  0  0  0  0  0  0  0
   -3.9330    1.0340    0.0000 C   0  0  0  0  0  0  0  0  0  0  0  0
   -3.0050    2.2120    0.0000 Cl  0  0  0  0  0  0  0  0  0  0  0  0
   -5.4180    1.2480    0.0000 C   0  0  0  0  0  0  0  0  0  0  0  0
   -6.3460    0.0700    0.0000 C   0  0  0  0  0  0  0  0  0  0  0  0
   -5.7890   -1.3230    0.0000 C   0  0  0  0  0  0  0  0  0  0  0  0
   -4.3040   -1.5380    0.0000 C   0  0  0  0  0  0  0  0  0  0  0  0
   -3.7480   -2.9310    0.0000 Cl  0  0  0  0  0  0  0  0  0  0  0  0
    2.9330    1.3550    0.0000 C   0  0  0  0  0  0  0  0  0  0  0  0
    2.3770    2.7480    0.0000 Cl  0  0  0  0  0  0  0  0  0  0  0  0
    4.4180    1.1400    0.0000 C   0  0  0  0  0  0  0  0  0  0  0  0
    4.6030   -2.8240    0.0000 H   0  0  0  0  0  0  0  0  0  0  0  0
    0.7350    1.8750    0.0000 H   0  0  0  0  0  0  0  0  0  0  0  0
    0.3060   -1.0940    0.0000 H   0  0  0  0  0  0  0  0  0  0  0  0
   -1.5200    1.9980    0.0000 H   0  0  0  0  0  0  0  0  0  0  0  0
   -5.9740    2.6410    0.0000 H   0  0  0  0  0  0  0  0  0  0  0  0
   -7.8300    0.2840    0.0000 H   0  0  0  0  0  0  0  0  0  0  0  0
   -6.7170   -2.5020    0.0000 H   0  0  0  0  0  0  0  0  0  0  0  0
    5.3460    2.3190    0.0000 H   0  0  0  0  0  0  0  0  0  0  0  0
  1  2  1  0  0  0  0
  2  3  1  0  0  0  0
  2  4  1  0  0  0  0
  2  5  1  0  0  0  0
  5  6  2  0  0  0  0
  5 23  1  0  0  0  0
  6  7  1  0  0  0  0
  6 24  1  0  0  0  0
  7  8  2  0  0  0  0
  8  9  1  0  0  0  0
  8 21  1  0  0  0  0
  9 10  1  0  0  0  0
  9 25  1  0  0  0  0
  9 26  1  0  0  0  0
 10 11  1  0  0  0  0
 10 27  1  0  0  0  0
 11 12  2  0  0  0  0
 11 13  1  0  0  0  0
 13 14  2  0  0  0  0
 13 19  1  0  0  0  0
 14 15  1  0  0  0  0
 14 16  1  0  0  0  0
 16 17  2  0  0  0  0
 16 28  1  0  0  0  0
 17 18  1  0  0  0  0
 17 29  1  0  0  0  0
 18 19  2  0  0  0  0
 18 30  1  0  0  0  0
 19 20  1  0  0  0  0
 21 22  1  0  0  0  0
 21 23  2  0  0  0  0
 23 31  1  0  0  0  0
M  END
$$$$
