2D_structures\o42_MMV1782387_2D.pdb
 OpenBabel02252417213D

 26 27  0  0  0  0  0  0  0  0999 V2000
   -4.8130    0.9240    0.0000 C   0  0  0  0  0  0  0  0  0  0  0  0
   -3.4760    0.2440    0.0000 O   0  0  0  0  0  0  0  0  0  0  0  0
   -3.3960   -1.2540    0.0000 C   0  0  0  0  0  0  0  0  0  0  0  0
   -4.6530   -2.0720    0.0000 O   0  0  0  0  0  0  0  0  0  0  0  0
   -2.0580   -1.9330    0.0000 N   0  0  0  0  0  0  0  0  0  0  0  0
   -0.8010   -1.1150    0.0000 C   0  0  0  0  0  0  0  0  0  0  0  0
    0.6000   -1.6510    0.0000 N   0  0  0  0  0  0  0  0  0  0  0  0
    1.5420   -0.4840    0.0000 C   0  0  0  0  0  0  0  0  0  0  0  0
    3.0400   -0.4040    0.0000 C   0  0  0  0  0  0  0  0  0  0  0  0
    3.8590   -1.6610    0.0000 C   0  0  0  0  0  0  0  0  0  0  0  0
    3.7200    0.9330    0.0000 C   0  0  0  0  0  0  0  0  0  0  0  0
    2.9010    2.1900    0.0000 C   0  0  0  0  0  0  0  0  0  0  0  0
    1.4040    2.1100    0.0000 C   0  0  0  0  0  0  0  0  0  0  0  0
    0.7240    0.7730    0.0000 C   0  0  0  0  0  0  0  0  0  0  0  0
   -0.7240    0.3830    0.0000 N   0  0  0  0  0  0  0  0  0  0  0  0
   -6.1500    1.6030    0.0000 H   0  0  0  0  0  0  0  0  0  0  0  0
   -4.1340    2.2610    0.0000 H   0  0  0  0  0  0  0  0  0  0  0  0
   -5.4930   -0.4130    0.0000 H   0  0  0  0  0  0  0  0  0  0  0  0
   -1.9780   -3.4310    0.0000 H   0  0  0  0  0  0  0  0  0  0  0  0
    4.6770   -2.9180    0.0000 H   0  0  0  0  0  0  0  0  0  0  0  0
    5.1160   -0.8430    0.0000 H   0  0  0  0  0  0  0  0  0  0  0  0
    2.6010   -2.4790    0.0000 H   0  0  0  0  0  0  0  0  0  0  0  0
    5.2180    1.0140    0.0000 H   0  0  0  0  0  0  0  0  0  0  0  0
    3.5810    3.5280    0.0000 H   0  0  0  0  0  0  0  0  0  0  0  0
    0.5850    3.3670    0.0000 H   0  0  0  0  0  0  0  0  0  0  0  0
   -1.8910    1.3260    0.0000 H   0  0  0  0  0  0  0  0  0  0  0  0
  1  2  1  0  0  0  0
  1 16  1  0  0  0  0
  1 17  1  0  0  0  0
  1 18  1  0  0  0  0
  2  3  1  0  0  0  0
  3  4  2  0  0  0  0
  3  5  1  0  0  0  0
  5  6  1  0  0  0  0
  5 19  1  0  0  0  0
  6  7  2  0  0  0  0
  6 15  1  0  0  0  0
  7  8  1  0  0  0  0
  8  9  2  0  0  0  0
  8 14  1  0  0  0  0
  9 10  1  0  0  0  0
  9 11  1  0  0  0  0
 10 20  1  0  0  0  0
 10 21  1  0  0  0  0
 10 22  1  0  0  0  0
 11 12  2  0  0  0  0
 11 23  1  0  0  0  0
 12 13  1  0  0  0  0
 12 24  1  0  0  0  0
 13 14  2  0  0  0  0
 13 25  1  0  0  0  0
 14 15  1  0  0  0  0
 15 26  1  0  0  0  0
M  END
$$$$
