2D_structures\o44_MMV1782388_2D.pdb
 OpenBabel02252417213D

 16 16  0  0  0  0  0  0  0  0999 V2000
   -2.8170    0.4950    0.0000 C   0  0  0  0  0  0  0  0  0  0  0  0
   -1.7860   -0.5940    0.0000 N   0  0  0  0  0  0  0  0  0  0  0  0
   -0.3270   -0.2450    0.0000 C   0  0  0  0  0  0  0  0  0  0  0  0
    0.1000    1.1930    0.0000 N   0  0  0  0  0  0  0  0  0  0  0  0
    1.5590    1.5420    0.0000 C   0  0  0  0  0  0  0  0  0  0  0  0
    1.9860    2.9800    0.0000 O   0  0  0  0  0  0  0  0  0  0  0  0
    2.5910    0.4530    0.0000 N   0  0  0  0  0  0  0  0  0  0  0  0
    2.1640   -0.9850    0.0000 C   0  0  0  0  0  0  0  0  0  0  0  0
    0.7050   -1.3340    0.0000 C   0  0  0  0  0  0  0  0  0  0  0  0
    0.2770   -2.7720    0.0000 F   0  0  0  0  0  0  0  0  0  0  0  0
   -3.8490    1.5840    0.0000 H   0  0  0  0  0  0  0  0  0  0  0  0
   -3.9060   -0.5370    0.0000 H   0  0  0  0  0  0  0  0  0  0  0  0
   -1.7280    1.5260    0.0000 H   0  0  0  0  0  0  0  0  0  0  0  0
   -2.2130   -2.0320    0.0000 H   0  0  0  0  0  0  0  0  0  0  0  0
    4.0500    0.8020    0.0000 H   0  0  0  0  0  0  0  0  0  0  0  0
    3.1950   -2.0740    0.0000 H   0  0  0  0  0  0  0  0  0  0  0  0
  1  2  1  0  0  0  0
  1 11  1  0  0  0  0
  1 12  1  0  0  0  0
  1 13  1  0  0  0  0
  2  3  1  0  0  0  0
  2 14  1  0  0  0  0
  3  4  2  0  0  0  0
  3  9  1  0  0  0  0
  4  5  1  0  0  0  0
  5  6  2  0  0  0  0
  5  7  1  0  0  0  0
  7  8  1  0  0  0  0
  7 15  1  0  0  0  0
  8  9  2  0  0  0  0
  8 16  1  0  0  0  0
  9 10  1  0  0  0  0
M  END
$$$$
