2D_structures\o48_MMV002722_2D.pdb
 OpenBabel02252417213D

 39 41  0  0  1  0  0  0  0  0999 V2000
    6.1990   -1.9360    0.0000 Cl  0  0  0  0  0  0  0  0  0  0  0  0
    4.7190   -1.6930    0.0000 C   0  0  0  0  0  0  0  0  0  0  0  0
    3.7690   -2.8540    0.0000 C   0  0  0  0  0  0  0  0  0  0  0  0
    2.2880   -2.6120    0.0000 C   0  0  0  0  0  0  0  0  0  0  0  0
    1.7580   -1.2090    0.0000 C   0  0  0  0  0  0  0  0  0  0  0  0
    0.2780   -0.9660    0.0000 C   0  0  0  0  0  0  0  0  0  0  0  0
   -1.2020   -0.7240    0.0000 O   0  0  0  0  0  0  0  0  0  0  0  0
   -1.7330    0.6790    0.0000 C   0  0  1  0  0  0  0  0  0  0  0  0
   -0.3290    1.2090    0.0000 C   0  0  0  0  0  0  0  0  0  0  0  0
    1.0740    1.7400    0.0000 N   0  0  0  0  0  0  0  0  0  0  0  0
    1.4700    3.1870    0.0000 C   0  0  0  0  0  0  0  0  0  0  0  0
    2.9680    3.2570    0.0000 C   0  0  0  0  0  0  0  0  0  0  0  0
    3.4980    1.8540    0.0000 N   0  0  0  0  0  0  0  0  0  0  0  0
    2.3270    0.9160    0.0000 C   0  0  0  0  0  0  0  0  0  0  0  0
   -3.1360    0.1490    0.0000 C   0  0  0  0  0  0  0  0  0  0  0  0
   -3.3780   -1.3310    0.0000 C   0  0  0  0  0  0  0  0  0  0  0  0
   -4.7810   -1.8610    0.0000 C   0  0  0  0  0  0  0  0  0  0  0  0
   -5.9420   -0.9110    0.0000 C   0  0  0  0  0  0  0  0  0  0  0  0
   -7.3450   -1.4420    0.0000 Cl  0  0  0  0  0  0  0  0  0  0  0  0
   -5.7000    0.5690    0.0000 C   0  0  0  0  0  0  0  0  0  0  0  0
   -4.2960    1.0990    0.0000 C   0  0  0  0  0  0  0  0  0  0  0  0
   -4.0540    2.5790    0.0000 Cl  0  0  0  0  0  0  0  0  0  0  0  0
    2.7080   -0.0480    0.0000 C   0  0  0  0  0  0  0  0  0  0  0  0
    2.6150    0.7440    0.0000 Cl  0  0  0  0  0  0  0  0  0  0  0  0
    4.1890   -0.2900    0.0000 C   0  0  0  0  0  0  0  0  0  0  0  0
    4.2990   -4.2570    0.0000 H   0  0  0  0  0  0  0  0  0  0  0  0
    1.3380   -3.7730    0.0000 H   0  0  0  0  0  0  0  0  0  0  0  0
    0.6990    0.4730    0.0000 H   0  0  0  0  0  0  0  0  0  0  0  0
    0.0360   -2.4470    0.0000 H   0  0  0  0  0  0  0  0  0  0  0  0
   -2.2630    2.0820    0.0000 H   0  0  0  0  0  0  0  0  0  0  0  0
   -0.8600    2.6130    0.0000 H   0  0  0  0  0  0  0  0  0  0  0  0
    0.6690    0.0900    0.0000 H   0  0  0  0  0  0  0  0  0  0  0  0
    0.5320    4.3570    0.0000 H   0  0  0  0  0  0  0  0  0  0  0  0
    3.7910    4.5110    0.0000 H   0  0  0  0  0  0  0  0  0  0  0  0
    2.7590   -0.5210    0.0000 H   0  0  0  0  0  0  0  0  0  0  0  0
   -2.2170   -2.2810    0.0000 H   0  0  0  0  0  0  0  0  0  0  0  0
   -5.0240   -3.3420    0.0000 H   0  0  0  0  0  0  0  0  0  0  0  0
   -6.8600    1.5190    0.0000 H   0  0  0  0  0  0  0  0  0  0  0  0
    5.1390    0.8700    0.0000 H   0  0  0  0  0  0  0  0  0  0  0  0
  1  2  1  0  0  0  0
  2  3  2  0  0  0  0
  2 25  1  0  0  0  0
  3  4  1  0  0  0  0
  3 26  1  0  0  0  0
  4  5  2  0  0  0  0
  4 27  1  0  0  0  0
  5  6  1  0  0  0  0
  5 23  1  0  0  0  0
  6  7  1  0  0  0  0
  6 28  1  0  0  0  0
  6 29  1  0  0  0  0
  7  8  1  0  0  0  0
  8  9  1  0  0  0  0
  8 15  1  0  0  0  0
  8 30  1  1  0  0  0
  9 10  1  0  0  0  0
  9 31  1  0  0  0  0
  9 32  1  0  0  0  0
 10 11  1  0  0  0  0
 10 14  1  0  0  0  0
 11 12  2  0  0  0  0
 11 33  1  0  0  0  0
 12 13  1  0  0  0  0
 12 34  1  0  0  0  0
 13 14  2  0  0  0  0
 14 35  1  0  0  0  0
 15 16  2  0  0  0  0
 15 21  1  0  0  0  0
 16 17  1  0  0  0  0
 16 36  1  0  0  0  0
 17 18  2  0  0  0  0
 17 37  1  0  0  0  0
 18 19  1  0  0  0  0
 18 20  1  0  0  0  0
 20 21  2  0  0  0  0
 20 38  1  0  0  0  0
 21 22  1  0  0  0  0
 23 24  1  0  0  0  0
 23 25  2  0  0  0  0
 25 39  1  0  0  0  0
M  END
$$$$
