2D_structures\o49_MMV1593535_2D.pdb
 OpenBabel02252417213D

 44 46  0  0  0  0  0  0  0  0999 V2000
    7.2320   -1.0250    0.0000 C   0  0  0  0  0  0  0  0  0  0  0  0
    5.7350   -0.9290    0.0000 C   0  0  0  0  0  0  0  0  0  0  0  0
    4.2390   -0.8320    0.0000 C   0  0  0  0  0  0  0  0  0  0  0  0
    2.7420   -0.7360    0.0000 C   0  0  0  0  0  0  0  0  0  0  0  0
    1.2450   -0.6390    0.0000 C   0  0  0  0  0  0  0  0  0  0  0  0
   -0.2520   -0.5430    0.0000 C   0  0  0  0  0  0  0  0  0  0  0  0
   -1.7490   -0.4460    0.0000 C   0  0  0  0  0  0  0  0  0  0  0  0
   -3.1890   -0.8670    0.0000 C   0  0  0  0  0  0  0  0  0  0  0  0
   -3.5440   -2.3250    0.0000 C   0  0  0  0  0  0  0  0  0  0  0  0
   -4.9830   -2.7460    0.0000 C   0  0  0  0  0  0  0  0  0  0  0  0
   -6.0680   -1.7100    0.0000 C   0  0  0  0  0  0  0  0  0  0  0  0
   -7.5080   -2.1310    0.0000 O   0  0  0  0  0  0  0  0  0  0  0  0
   -5.7130   -0.2530    0.0000 C   0  0  0  0  0  0  0  0  0  0  0  0
   -4.2730    0.1690    0.0000 C   0  0  0  0  0  0  0  0  0  0  0  0
   -3.9180    1.6260    0.0000 O   0  0  0  0  0  0  0  0  0  0  0  0
   -2.4790    2.0470    0.0000 C   0  0  0  0  0  0  0  0  0  0  0  0
   -2.1240    3.5050    0.0000 C   0  0  0  0  0  0  0  0  0  0  0  0
   -0.6840    3.9260    0.0000 C   0  0  0  0  0  0  0  0  0  0  0  0
   -0.3290    5.3830    0.0000 O   0  0  0  0  0  0  0  0  0  0  0  0
    0.4000    2.8900    0.0000 C   0  0  0  0  0  0  0  0  0  0  0  0
    0.0450    1.4330    0.0000 C   0  0  0  0  0  0  0  0  0  0  0  0
   -1.3940    1.0110    0.0000 C   0  0  0  0  0  0  0  0  0  0  0  0
    8.7290   -1.1210    0.0000 H   0  0  0  0  0  0  0  0  0  0  0  0
    7.3290    0.4720    0.0000 H   0  0  0  0  0  0  0  0  0  0  0  0
    7.1360   -2.5220    0.0000 H   0  0  0  0  0  0  0  0  0  0  0  0
    5.8320    0.5680    0.0000 H   0  0  0  0  0  0  0  0  0  0  0  0
    5.6390   -2.4250    0.0000 H   0  0  0  0  0  0  0  0  0  0  0  0
    4.1420   -2.3290    0.0000 H   0  0  0  0  0  0  0  0  0  0  0  0
    4.3350    0.6650    0.0000 H   0  0  0  0  0  0  0  0  0  0  0  0
    2.8380    0.7610    0.0000 H   0  0  0  0  0  0  0  0  0  0  0  0
    2.6450   -2.2320    0.0000 H   0  0  0  0  0  0  0  0  0  0  0  0
    1.4090    0.2310    0.0000 H   0  0  0  0  0  0  0  0  0  0  0  0
    1.1480   -2.1360    0.0000 H   0  0  0  0  0  0  0  0  0  0  0  0
    0.0800    0.4990    0.0000 H   0  0  0  0  0  0  0  0  0  0  0  0
   -0.3490   -2.0390    0.0000 H   0  0  0  0  0  0  0  0  0  0  0  0
   -1.5840   -1.9370    0.0000 H   0  0  0  0  0  0  0  0  0  0  0  0
   -2.4590   -3.3610    0.0000 H   0  0  0  0  0  0  0  0  0  0  0  0
   -5.3380   -4.2040    0.0000 H   0  0  0  0  0  0  0  0  0  0  0  0
   -8.5920   -1.0950    0.0000 H   0  0  0  0  0  0  0  0  0  0  0  0
   -6.7980    0.7830    0.0000 H   0  0  0  0  0  0  0  0  0  0  0  0
   -3.2090    4.5410    0.0000 H   0  0  0  0  0  0  0  0  0  0  0  0
    1.1100    5.8050    0.0000 H   0  0  0  0  0  0  0  0  0  0  0  0
    1.8400    3.3110    0.0000 H   0  0  0  0  0  0  0  0  0  0  0  0
    0.6850    0.9560    0.0000 H   0  0  0  0  0  0  0  0  0  0  0  0
  1  2  1  0  0  0  0
  1 23  1  0  0  0  0
  1 24  1  0  0  0  0
  1 25  1  0  0  0  0
  2  3  1  0  0  0  0
  2 26  1  0  0  0  0
  2 27  1  0  0  0  0
  3  4  1  0  0  0  0
  3 28  1  0  0  0  0
  3 29  1  0  0  0  0
  4  5  1  0  0  0  0
  4 30  1  0  0  0  0
  4 31  1  0  0  0  0
  5  6  1  0  0  0  0
  5 32  1  0  0  0  0
  5 33  1  0  0  0  0
  6  7  1  0  0  0  0
  6 34  1  0  0  0  0
  6 35  1  0  0  0  0
  7  8  1  0  0  0  0
  7 22  1  0  0  0  0
  7 36  1  0  0  0  0
  8  9  2  0  0  0  0
  8 14  1  0  0  0  0
  9 10  1  0  0  0  0
  9 37  1  0  0  0  0
 10 11  2  0  0  0  0
 10 38  1  0  0  0  0
 11 12  1  0  0  0  0
 11 13  1  0  0  0  0
 12 39  1  0  0  0  0
 13 14  2  0  0  0  0
 13 40  1  0  0  0  0
 14 15  1  0  0  0  0
 15 16  1  0  0  0  0
 16 17  2  0  0  0  0
 16 22  1  0  0  0  0
 17 18  1  0  0  0  0
 17 41  1  0  0  0  0
 18 19  1  0  0  0  0
 18 20  2  0  0  0  0
 19 42  1  0  0  0  0
 20 21  1  0  0  0  0
 20 43  1  0  0  0  0
 21 22  2  0  0  0  0
 21 44  1  0  0  0  0
M  END
$$$$
