2D_structures\o4_MMV1634386_2D.pdb
 OpenBabel02252417213D

 53 56  0  0  1  0  0  0  0  0999 V2000
    4.8560   -3.5260    0.0000 F   0  0  0  0  0  0  0  0  0  0  0  0
    5.8010   -2.3610    0.0000 C   0  0  0  0  0  0  0  0  0  0  0  0
    5.2650   -0.9600    0.0000 C   0  0  0  0  0  0  0  0  0  0  0  0
    6.2100    0.2050    0.0000 C   0  0  0  0  0  0  0  0  0  0  0  0
    7.6910   -0.0310    0.0000 C   0  0  0  0  0  0  0  0  0  0  0  0
    8.2270   -1.4320    0.0000 C   0  0  0  0  0  0  0  0  0  0  0  0
    7.2830   -2.5970    0.0000 C   0  0  0  0  0  0  0  0  0  0  0  0
    9.7090   -1.6670    0.0000 F   0  0  0  0  0  0  0  0  0  0  0  0
    3.7830   -0.7240    0.0000 C   0  0  1  0  0  0  0  0  0  0  0  0
    3.5480   -2.2060    0.0000 O   0  0  0  0  0  0  0  0  0  0  0  0
    2.3020   -0.4880    0.0000 C   0  0  0  0  0  0  0  0  0  0  0  0
    2.3340    0.3970    0.0000 F   0  0  0  0  0  0  0  0  0  0  0  0
    1.8870   -1.9300    0.0000 F   0  0  0  0  0  0  0  0  0  0  0  0
    0.8210   -0.2530    0.0000 C   0  0  0  0  0  0  0  0  0  0  0  0
    0.2840    1.1480    0.0000 N   0  0  0  0  0  0  0  0  0  0  0  0
   -1.1970    1.3840    0.0000 C   0  0  0  0  0  0  0  0  0  0  0  0
   -2.1420    0.2190    0.0000 C   0  0  0  0  0  0  0  0  0  0  0  0
   -3.6230    0.4550    0.0000 C   0  0  0  0  0  0  0  0  0  0  0  0
   -4.1600    1.8550    0.0000 C   0  0  0  0  0  0  0  0  0  0  0  0
   -5.6410    2.0910    0.0000 C   0  0  0  0  0  0  0  0  0  0  0  0
   -6.5860    0.9260    0.0000 C   0  0  0  0  0  0  0  0  0  0  0  0
   -8.0670    1.1620    0.0000 O   0  0  0  0  0  0  0  0  0  0  0  0
   -9.0120   -0.0030    0.0000 C   0  0  0  0  0  0  0  0  0  0  0  0
   -9.9570   -1.1680    0.0000 C   0  0  0  0  0  0  0  0  0  0  0  0
  -10.9020   -2.3330    0.0000 F   0  0  0  0  0  0  0  0  0  0  0  0
  -11.1220   -0.2230    0.0000 F   0  0  0  0  0  0  0  0  0  0  0  0
   -8.7920   -2.1130    0.0000 F   0  0  0  0  0  0  0  0  0  0  0  0
   -6.0500   -0.4750    0.0000 C   0  0  0  0  0  0  0  0  0  0  0  0
   -4.5680   -0.7100    0.0000 C   0  0  0  0  0  0  0  0  0  0  0  0
   -1.6060   -1.1820    0.0000 C   0  0  0  0  0  0  0  0  0  0  0  0
   -0.1240   -1.4180    0.0000 C   0  0  0  0  0  0  0  0  0  0  0  0
    4.0190    0.7570    0.0000 C   0  0  0  0  0  0  0  0  0  0  0  0
    4.2550    2.2380    0.0000 N   0  0  0  0  0  0  0  0  0  0  0  0
    3.1950    3.3000    0.0000 N   0  0  0  0  0  0  0  0  0  0  0  0
    3.8770    4.6360    0.0000 N   0  0  0  0  0  0  0  0  0  0  0  0
    5.3590    4.4000    0.0000 N   0  0  0  0  0  0  0  0  0  0  0  0
    5.5920    2.9180    0.0000 C   0  0  0  0  0  0  0  0  0  0  0  0
    5.8930    1.0320    0.0000 H   0  0  0  0  0  0  0  0  0  0  0  0
    8.6360    1.1340    0.0000 H   0  0  0  0  0  0  0  0  0  0  0  0
    7.8190   -3.9970    0.0000 H   0  0  0  0  0  0  0  0  0  0  0  0
    2.2230   -2.9090    0.0000 H   0  0  0  0  0  0  0  0  0  0  0  0
   -1.7340    2.7850    0.0000 H   0  0  0  0  0  0  0  0  0  0  0  0
   -3.2150    3.0200    0.0000 H   0  0  0  0  0  0  0  0  0  0  0  0
   -6.1780    3.4920    0.0000 H   0  0  0  0  0  0  0  0  0  0  0  0
   -7.8470   -0.9480    0.0000 H   0  0  0  0  0  0  0  0  0  0  0  0
  -10.1770    0.9420    0.0000 H   0  0  0  0  0  0  0  0  0  0  0  0
   -6.9940   -1.6400    0.0000 H   0  0  0  0  0  0  0  0  0  0  0  0
   -4.0320   -2.1110    0.0000 H   0  0  0  0  0  0  0  0  0  0  0  0
   -2.5500   -2.3470    0.0000 H   0  0  0  0  0  0  0  0  0  0  0  0
    0.4120   -2.8180    0.0000 H   0  0  0  0  0  0  0  0  0  0  0  0
    3.1680    1.0020    0.0000 H   0  0  0  0  0  0  0  0  0  0  0  0
    4.9020    0.8340    0.0000 H   0  0  0  0  0  0  0  0  0  0  0  0
    6.9280    2.2360    0.0000 H   0  0  0  0  0  0  0  0  0  0  0  0
  1  2  1  0  0  0  0
  2  3  2  0  0  0  0
  2  7  1  0  0  0  0
  3  4  1  0  0  0  0
  3  9  1  0  0  0  0
  4  5  2  0  0  0  0
  4 38  1  0  0  0  0
  5  6  1  0  0  0  0
  5 39  1  0  0  0  0
  6  7  2  0  0  0  0
  6  8  1  0  0  0  0
  7 40  1  0  0  0  0
  9 10  1  6  0  0  0
  9 11  1  0  0  0  0
  9 32  1  0  0  0  0
 10 41  1  0  0  0  0
 11 12  1  0  0  0  0
 11 13  1  0  0  0  0
 11 14  1  0  0  0  0
 14 15  2  0  0  0  0
 14 31  1  0  0  0  0
 15 16  1  0  0  0  0
 16 17  2  0  0  0  0
 16 42  1  0  0  0  0
 17 18  1  0  0  0  0
 17 30  1  0  0  0  0
 18 19  2  0  0  0  0
 18 29  1  0  0  0  0
 19 20  1  0  0  0  0
 19 43  1  0  0  0  0
 20 21  2  0  0  0  0
 20 44  1  0  0  0  0
 21 22  1  0  0  0  0
 21 28  1  0  0  0  0
 22 23  1  0  0  0  0
 23 24  1  0  0  0  0
 23 45  1  0  0  0  0
 23 46  1  0  0  0  0
 24 25  1  0  0  0  0
 24 26  1  0  0  0  0
 24 27  1  0  0  0  0
 28 29  2  0  0  0  0
 28 47  1  0  0  0  0
 29 48  1  0  0  0  0
 30 31  2  0  0  0  0
 30 49  1  0  0  0  0
 31 50  1  0  0  0  0
 32 33  1  0  0  0  0
 32 51  1  0  0  0  0
 32 52  1  0  0  0  0
 33 34  1  0  0  0  0
 33 37  1  0  0  0  0
 34 35  2  0  0  0  0
 35 36  1  0  0  0  0
 36 37  2  0  0  0  0
 37 53  1  0  0  0  0
M  END
$$$$
