2D_structures\o50_MMV1593533_2D.pdb
 OpenBabel02252417213D

 49 52  0  0  1  0  0  0  0  0999 V2000
   -2.0980    2.4650    0.0000 C   0  0  0  0  0  0  0  0  0  0  0  0
   -1.5140    1.0830    0.0000 C   0  0  1  0  0  0  0  0  0  0  0  0
   -2.9490    0.6480    0.0000 C   0  0  1  0  0  0  0  0  0  0  0  0
   -2.9780   -0.8520    0.0000 O   0  0  0  0  0  0  0  0  0  0  0  0
   -1.5610   -1.3430    0.0000 C   0  0  0  0  0  0  0  0  0  0  0  0
   -1.1250   -2.7780    0.0000 O   0  0  0  0  0  0  0  0  0  0  0  0
   -0.6560   -0.1470    0.0000 N   0  0  0  0  0  0  0  0  0  0  0  0
    0.8440   -0.1760    0.0000 C   0  0  0  0  0  0  0  0  0  0  0  0
    1.6190    1.1090    0.0000 O   0  0  0  0  0  0  0  0  0  0  0  0
    1.5690   -1.4890    0.0000 N   0  0  0  0  0  0  0  0  0  0  0  0
    3.0680   -1.5180    0.0000 C   0  0  0  0  0  0  0  0  0  0  0  0
    4.5680   -1.5470    0.0000 C   0  0  0  0  0  0  0  0  0  0  0  0
    5.2930   -2.8600    0.0000 C   0  0  0  0  0  0  0  0  0  0  0  0
    6.7930   -2.8890    0.0000 N   0  0  0  0  0  0  0  0  0  0  0  0
    7.5680   -1.6050    0.0000 C   0  0  0  0  0  0  0  0  0  0  0  0
    6.8430   -0.2920    0.0000 C   0  0  0  0  0  0  0  0  0  0  0  0
    7.6180    0.9930    0.0000 C   0  0  0  0  0  0  0  0  0  0  0  0
    6.8930    2.3060    0.0000 C   0  0  0  0  0  0  0  0  0  0  0  0
    5.3930    2.3350    0.0000 C   0  0  0  0  0  0  0  0  0  0  0  0
    4.6180    1.0510    0.0000 C   0  0  0  0  0  0  0  0  0  0  0  0
    5.3430   -0.2630    0.0000 C   0  0  0  0  0  0  0  0  0  0  0  0
   -4.4440    0.5200    0.0000 C   0  0  0  0  0  0  0  0  0  0  0  0
   -5.3020    1.7500    0.0000 C   0  0  0  0  0  0  0  0  0  0  0  0
   -6.7960    1.6220    0.0000 C   0  0  0  0  0  0  0  0  0  0  0  0
   -7.4330    0.2640    0.0000 C   0  0  0  0  0  0  0  0  0  0  0  0
   -6.5750   -0.9670    0.0000 C   0  0  0  0  0  0  0  0  0  0  0  0
   -5.0800   -0.8390    0.0000 C   0  0  0  0  0  0  0  0  0  0  0  0
   -7.2110   -2.3250    0.0000 C   0  0  0  0  0  0  0  0  0  0  0  0
   -7.8480   -3.6830    0.0000 F   0  0  0  0  0  0  0  0  0  0  0  0
   -5.8530   -2.9610    0.0000 F   0  0  0  0  0  0  0  0  0  0  0  0
   -8.5690   -1.6890    0.0000 F   0  0  0  0  0  0  0  0  0  0  0  0
   -2.6810    3.8470    0.0000 H   0  0  0  0  0  0  0  0  0  0  0  0
   -0.7160    3.0490    0.0000 H   0  0  0  0  0  0  0  0  0  0  0  0
   -2.8640    2.2470    0.0000 H   0  0  0  0  0  0  0  0  0  0  0  0
   -0.2010    1.8080    0.0000 H   0  0  0  0  0  0  0  0  0  0  0  0
   -3.1940    1.4060    0.0000 H   0  0  0  0  0  0  0  0  0  0  0  0
    0.7940   -2.7730    0.0000 H   0  0  0  0  0  0  0  0  0  0  0  0
    3.0390   -3.0180    0.0000 H   0  0  0  0  0  0  0  0  0  0  0  0
    3.0970   -0.0180    0.0000 H   0  0  0  0  0  0  0  0  0  0  0  0
    4.5180   -4.1450    0.0000 H   0  0  0  0  0  0  0  0  0  0  0  0
    9.0670   -1.6340    0.0000 H   0  0  0  0  0  0  0  0  0  0  0  0
    9.1170    0.9640    0.0000 H   0  0  0  0  0  0  0  0  0  0  0  0
    7.6680    3.5900    0.0000 H   0  0  0  0  0  0  0  0  0  0  0  0
    4.6680    3.6480    0.0000 H   0  0  0  0  0  0  0  0  0  0  0  0
    3.1180    1.0800    0.0000 H   0  0  0  0  0  0  0  0  0  0  0  0
   -4.6650    3.1080    0.0000 H   0  0  0  0  0  0  0  0  0  0  0  0
   -7.6550    2.8520    0.0000 H   0  0  0  0  0  0  0  0  0  0  0  0
   -8.9270    0.1360    0.0000 H   0  0  0  0  0  0  0  0  0  0  0  0
   -4.2220   -2.0690    0.0000 H   0  0  0  0  0  0  0  0  0  0  0  0
  1  2  1  0  0  0  0
  1 32  1  0  0  0  0
  1 33  1  0  0  0  0
  1 34  1  0  0  0  0
  2  3  1  0  0  0  0
  2  7  1  0  0  0  0
  2 35  1  1  0  0  0
  3  4  1  0  0  0  0
  3 22  1  0  0  0  0
  3 36  1  6  0  0  0
  4  5  1  0  0  0  0
  5  6  2  0  0  0  0
  5  7  1  0  0  0  0
  7  8  1  0  0  0  0
  8  9  2  0  0  0  0
  8 10  1  0  0  0  0
 10 11  1  0  0  0  0
 10 37  1  0  0  0  0
 11 12  1  0  0  0  0
 11 38  1  0  0  0  0
 11 39  1  0  0  0  0
 12 13  2  0  0  0  0
 12 21  1  0  0  0  0
 13 14  1  0  0  0  0
 13 40  1  0  0  0  0
 14 15  2  0  0  0  0
 15 16  1  0  0  0  0
 15 41  1  0  0  0  0
 16 17  2  0  0  0  0
 16 21  1  0  0  0  0
 17 18  1  0  0  0  0
 17 42  1  0  0  0  0
 18 19  2  0  0  0  0
 18 43  1  0  0  0  0
 19 20  1  0  0  0  0
 19 44  1  0  0  0  0
 20 21  2  0  0  0  0
 20 45  1  0  0  0  0
 22 23  2  0  0  0  0
 22 27  1  0  0  0  0
 23 24  1  0  0  0  0
 23 46  1  0  0  0  0
 24 25  2  0  0  0  0
 24 47  1  0  0  0  0
 25 26  1  0  0  0  0
 25 48  1  0  0  0  0
 26 27  2  0  0  0  0
 26 28  1  0  0  0  0
 27 49  1  0  0  0  0
 28 29  1  0  0  0  0
 28 30  1  0  0  0  0
 28 31  1  0  0  0  0
M  END
$$$$
