2D_structures\o51_MMV422940_2D.pdb
 OpenBabel02252417213D

 26 28  0  0  0  0  0  0  0  0999 V2000
   -5.5570    0.0810    0.0000 O   0  0  0  0  0  0  0  0  0  0  0  0
   -4.0760    0.3230    0.0000 C   0  0  0  0  0  0  0  0  0  0  0  0
   -3.0100   -0.7320    0.0000 C   0  0  0  0  0  0  0  0  0  0  0  0
   -1.6770   -0.0450    0.0000 C   0  0  0  0  0  0  0  0  0  0  0  0
   -1.9190    1.4360    0.0000 N   0  0  0  0  0  0  0  0  0  0  0  0
   -3.4020    1.6630    0.0000 N   0  0  0  0  0  0  0  0  0  0  0  0
   -0.3370   -0.7190    0.0000 C   0  0  0  0  0  0  0  0  0  0  0  0
   -0.2520   -2.2170    0.0000 C   0  0  0  0  0  0  0  0  0  0  0  0
    1.0880   -2.8910    0.0000 C   0  0  0  0  0  0  0  0  0  0  0  0
    2.3420   -2.0680    0.0000 C   0  0  0  0  0  0  0  0  0  0  0  0
    2.2560   -0.5700    0.0000 C   0  0  0  0  0  0  0  0  0  0  0  0
    3.5100    0.2530    0.0000 C   0  0  0  0  0  0  0  0  0  0  0  0
    3.4240    1.7500    0.0000 C   0  0  0  0  0  0  0  0  0  0  0  0
    2.0850    2.4250    0.0000 C   0  0  0  0  0  0  0  0  0  0  0  0
    0.8310    1.6020    0.0000 C   0  0  0  0  0  0  0  0  0  0  0  0
    0.9170    0.1040    0.0000 C   0  0  0  0  0  0  0  0  0  0  0  0
   -6.5060    1.2430    0.0000 H   0  0  0  0  0  0  0  0  0  0  0  0
   -3.2380   -2.2150    0.0000 H   0  0  0  0  0  0  0  0  0  0  0  0
   -1.1760    2.3970    0.0000 H   0  0  0  0  0  0  0  0  0  0  0  0
   -1.5060   -3.0400    0.0000 H   0  0  0  0  0  0  0  0  0  0  0  0
    1.1740   -4.3890    0.0000 H   0  0  0  0  0  0  0  0  0  0  0  0
    3.6820   -2.7420    0.0000 H   0  0  0  0  0  0  0  0  0  0  0  0
    4.8500   -0.4220    0.0000 H   0  0  0  0  0  0  0  0  0  0  0  0
    4.6780    2.5730    0.0000 H   0  0  0  0  0  0  0  0  0  0  0  0
    1.9990    3.9220    0.0000 H   0  0  0  0  0  0  0  0  0  0  0  0
   -0.1800    2.2760    0.0000 H   0  0  0  0  0  0  0  0  0  0  0  0
  1  2  1  0  0  0  0
  1 17  1  0  0  0  0
  2  3  1  0  0  0  0
  2  6  2  0  0  0  0
  3  4  2  0  0  0  0
  3 18  1  0  0  0  0
  4  5  1  0  0  0  0
  4  7  1  0  0  0  0
  5  6  1  0  0  0  0
  5 19  1  0  0  0  0
  7  8  2  0  0  0  0
  7 16  1  0  0  0  0
  8  9  1  0  0  0  0
  8 20  1  0  0  0  0
  9 10  2  0  0  0  0
  9 21  1  0  0  0  0
 10 11  1  0  0  0  0
 10 22  1  0  0  0  0
 11 12  2  0  0  0  0
 11 16  1  0  0  0  0
 12 13  1  0  0  0  0
 12 23  1  0  0  0  0
 13 14  2  0  0  0  0
 13 24  1  0  0  0  0
 14 15  1  0  0  0  0
 14 25  1  0  0  0  0
 15 16  2  0  0  0  0
 15 26  1  0  0  0  0
M  END
$$$$
