2D_structures\o52_MMV1582497_2D.pdb
 OpenBabel02252417213D

 51 53  0  0  0  0  0  0  0  0999 V2000
    6.6210   -2.9210    0.0000 C   0  0  0  0  0  0  0  0  0  0  0  0
    5.6380   -1.7880    0.0000 C   0  0  0  0  0  0  0  0  0  0  0  0
    6.7700   -0.8050    0.0000 C   0  0  0  0  0  0  0  0  0  0  0  0
    4.6540   -0.6560    0.0000 C   0  0  0  0  0  0  0  0  0  0  0  0
    3.1810   -0.9420    0.0000 C   0  0  0  0  0  0  0  0  0  0  0  0
    2.1970    0.1900    0.0000 C   0  0  0  0  0  0  0  0  0  0  0  0
    2.6860    1.6080    0.0000 C   0  0  0  0  0  0  0  0  0  0  0  0
    1.7020    2.7410    0.0000 C   0  0  0  0  0  0  0  0  0  0  0  0
    0.7180    3.8730    0.0000 O   0  0  0  0  0  0  0  0  0  0  0  0
   -0.7540    3.5870    0.0000 C   0  0  0  0  0  0  0  0  0  0  0  0
   -1.7380    4.7190    0.0000 C   0  0  0  0  0  0  0  0  0  0  0  0
   -3.2100    4.4340    0.0000 C   0  0  0  0  0  0  0  0  0  0  0  0
   -3.6990    3.0150    0.0000 C   0  0  0  0  0  0  0  0  0  0  0  0
   -2.7150    1.8830    0.0000 C   0  0  0  0  0  0  0  0  0  0  0  0
   -1.2430    2.1690    0.0000 C   0  0  0  0  0  0  0  0  0  0  0  0
   -3.2040    0.4650    0.0000 C   0  0  0  0  0  0  0  0  0  0  0  0
   -4.6760    0.1790    0.0000 C   0  0  0  0  0  0  0  0  0  0  0  0
   -5.1650   -1.2390    0.0000 C   0  0  0  0  0  0  0  0  0  0  0  0
   -4.1810   -2.3710    0.0000 C   0  0  0  0  0  0  0  0  0  0  0  0
   -4.6700   -3.7900    0.0000 C   0  0  0  0  0  0  0  0  0  0  0  0
   -5.1590   -5.2080    0.0000 N   0  0  0  0  0  0  0  0  0  0  0  0
   -2.7090   -2.0860    0.0000 C   0  0  0  0  0  0  0  0  0  0  0  0
   -1.7250   -3.2180    0.0000 O   0  0  0  0  0  0  0  0  0  0  0  0
   -2.2200   -0.6670    0.0000 N   0  0  0  0  0  0  0  0  0  0  0  0
   -6.6380   -1.5250    0.0000 S   0  0  1  0  0  0  0  0  0  0  0  0
   -7.6210   -0.3930    0.0000 O   0  0  0  0  0  0  0  0  0  0  0  0
   -7.1260   -2.9430    0.0000 C   0  0  0  0  0  0  0  0  0  0  0  0
    4.1590    1.8940    0.0000 C   0  0  0  0  0  0  0  0  0  0  0  0
    5.1420    0.7620    0.0000 C   0  0  0  0  0  0  0  0  0  0  0  0
    7.6050   -4.0530    0.0000 H   0  0  0  0  0  0  0  0  0  0  0  0
    5.4890   -3.9050    0.0000 H   0  0  0  0  0  0  0  0  0  0  0  0
    7.3560   -2.4260    0.0000 H   0  0  0  0  0  0  0  0  0  0  0  0
    4.5050   -2.7720    0.0000 H   0  0  0  0  0  0  0  0  0  0  0  0
    7.9020    0.1790    0.0000 H   0  0  0  0  0  0  0  0  0  0  0  0
    7.4280   -1.3970    0.0000 H   0  0  0  0  0  0  0  0  0  0  0  0
    6.3680   -0.0150    0.0000 H   0  0  0  0  0  0  0  0  0  0  0  0
    2.6930   -2.3600    0.0000 H   0  0  0  0  0  0  0  0  0  0  0  0
    0.7250   -0.0960    0.0000 H   0  0  0  0  0  0  0  0  0  0  0  0
    2.8350    3.7250    0.0000 H   0  0  0  0  0  0  0  0  0  0  0  0
    0.5700    1.7570    0.0000 H   0  0  0  0  0  0  0  0  0  0  0  0
   -1.2490    6.1380    0.0000 H   0  0  0  0  0  0  0  0  0  0  0  0
   -4.1940    5.5660    0.0000 H   0  0  0  0  0  0  0  0  0  0  0  0
   -5.1720    2.7290    0.0000 H   0  0  0  0  0  0  0  0  0  0  0  0
   -0.2590    1.0370    0.0000 H   0  0  0  0  0  0  0  0  0  0  0  0
   -5.6600    1.3110    0.0000 H   0  0  0  0  0  0  0  0  0  0  0  0
   -0.7480   -0.3820    0.0000 H   0  0  0  0  0  0  0  0  0  0  0  0
   -7.6150   -4.3610    0.0000 H   0  0  0  0  0  0  0  0  0  0  0  0
   -8.5440   -2.4550    0.0000 H   0  0  0  0  0  0  0  0  0  0  0  0
   -5.7080   -3.4320    0.0000 H   0  0  0  0  0  0  0  0  0  0  0  0
    4.6470    3.3120    0.0000 H   0  0  0  0  0  0  0  0  0  0  0  0
    6.0120    0.9310    0.0000 H   0  0  0  0  0  0  0  0  0  0  0  0
  1  2  1  0  0  0  0
  1 30  1  0  0  0  0
  1 31  1  0  0  0  0
  1 32  1  0  0  0  0
  2  3  1  0  0  0  0
  2  4  1  0  0  0  0
  2 33  1  0  0  0  0
  3 34  1  0  0  0  0
  3 35  1  0  0  0  0
  3 36  1  0  0  0  0
  4  5  2  0  0  0  0
  4 29  1  0  0  0  0
  5  6  1  0  0  0  0
  5 37  1  0  0  0  0
  6  7  2  0  0  0  0
  6 38  1  0  0  0  0
  7  8  1  0  0  0  0
  7 28  1  0  0  0  0
  8  9  1  0  0  0  0
  8 39  1  0  0  0  0
  8 40  1  0  0  0  0
  9 10  1  0  0  0  0
 10 11  2  0  0  0  0
 10 15  1  0  0  0  0
 11 12  1  0  0  0  0
 11 41  1  0  0  0  0
 12 13  2  0  0  0  0
 12 42  1  0  0  0  0
 13 14  1  0  0  0  0
 13 43  1  0  0  0  0
 14 15  2  0  0  0  0
 14 16  1  0  0  0  0
 15 44  1  0  0  0  0
 16 17  2  0  0  0  0
 16 24  1  0  0  0  0
 17 18  1  0  0  0  0
 17 45  1  0  0  0  0
 18 19  2  0  0  0  0
 18 25  1  0  0  0  0
 19 20  1  0  0  0  0
 19 22  1  0  0  0  0
 20 21  3  0  0  0  0
 22 23  2  0  0  0  0
 22 24  1  0  0  0  0
 24 46  1  0  0  0  0
 25 26  2  6  0  0  0
 25 27  1  0  0  0  0
 27 47  1  0  0  0  0
 27 48  1  0  0  0  0
 27 49  1  0  0  0  0
 28 29  2  0  0  0  0
 28 50  1  0  0  0  0
 29 51  1  0  0  0  0
M  END
$$$$
