2D_structures\o54_MMV1581548_2D.pdb
 OpenBabel02252417213D

 43 45  0  0  0  0  0  0  0  0999 V2000
    5.6170    1.4130    0.0000 C   0  0  0  0  0  0  0  0  0  0  0  0
    4.4850    0.4290    0.0000 C   0  0  0  0  0  0  0  0  0  0  0  0
    5.4690   -0.7030    0.0000 C   0  0  0  0  0  0  0  0  0  0  0  0
    3.5010    1.5610    0.0000 C   0  0  0  0  0  0  0  0  0  0  0  0
    3.3530   -0.5550    0.0000 C   0  0  0  0  0  0  0  0  0  0  0  0
    3.6390   -2.0270    0.0000 C   0  0  0  0  0  0  0  0  0  0  0  0
    2.5070   -3.0110    0.0000 C   0  0  0  0  0  0  0  0  0  0  0  0
    1.0880   -2.5220    0.0000 C   0  0  0  0  0  0  0  0  0  0  0  0
    0.8020   -1.0500    0.0000 C   0  0  0  0  0  0  0  0  0  0  0  0
    1.9350   -0.0660    0.0000 C   0  0  0  0  0  0  0  0  0  0  0  0
    1.6490    1.4060    0.0000 O   0  0  0  0  0  0  0  0  0  0  0  0
   -0.6160   -0.5610    0.0000 C   0  0  0  0  0  0  0  0  0  0  0  0
   -1.8450   -1.4220    0.0000 N   0  0  0  0  0  0  0  0  0  0  0  0
   -3.0420   -0.5190    0.0000 C   0  0  0  0  0  0  0  0  0  0  0  0
   -4.5150   -0.8050    0.0000 C   0  0  0  0  0  0  0  0  0  0  0  0
   -5.4990    0.3280    0.0000 C   0  0  0  0  0  0  0  0  0  0  0  0
   -5.0100    1.7460    0.0000 C   0  0  0  0  0  0  0  0  0  0  0  0
   -3.5380    2.0320    0.0000 C   0  0  0  0  0  0  0  0  0  0  0  0
   -2.5540    0.9000    0.0000 C   0  0  0  0  0  0  0  0  0  0  0  0
   -1.0540    0.8730    0.0000 N   0  0  0  0  0  0  0  0  0  0  0  0
   -6.9710    0.0420    0.0000 C   0  0  0  0  0  0  0  0  0  0  0  0
   -7.9550    1.1740    0.0000 N   0  0  0  0  0  0  0  0  0  0  0  0
   -7.4600   -1.3770    0.0000 N   0  0  0  0  0  0  0  0  0  0  0  0
    6.7500    2.3970    0.0000 H   0  0  0  0  0  0  0  0  0  0  0  0
    5.1220    2.1480    0.0000 H   0  0  0  0  0  0  0  0  0  0  0  0
    6.2750    0.8200    0.0000 H   0  0  0  0  0  0  0  0  0  0  0  0
    6.4530   -1.8350    0.0000 H   0  0  0  0  0  0  0  0  0  0  0  0
    6.2030   -0.2080    0.0000 H   0  0  0  0  0  0  0  0  0  0  0  0
    4.7720   -1.6980    0.0000 H   0  0  0  0  0  0  0  0  0  0  0  0
    2.6630    2.8050    0.0000 H   0  0  0  0  0  0  0  0  0  0  0  0
    4.0940    2.2200    0.0000 H   0  0  0  0  0  0  0  0  0  0  0  0
    2.5270    1.0650    0.0000 H   0  0  0  0  0  0  0  0  0  0  0  0
    4.7880   -2.4230    0.0000 H   0  0  0  0  0  0  0  0  0  0  0  0
    2.7930   -4.4840    0.0000 H   0  0  0  0  0  0  0  0  0  0  0  0
   -0.0440   -3.5060    0.0000 H   0  0  0  0  0  0  0  0  0  0  0  0
    2.6530    2.5210    0.0000 H   0  0  0  0  0  0  0  0  0  0  0  0
   -5.0030   -2.2230    0.0000 H   0  0  0  0  0  0  0  0  0  0  0  0
   -5.9940    2.8780    0.0000 H   0  0  0  0  0  0  0  0  0  0  0  0
   -3.0490    3.4500    0.0000 H   0  0  0  0  0  0  0  0  0  0  0  0
   -0.1510    2.0710    0.0000 H   0  0  0  0  0  0  0  0  0  0  0  0
   -9.4280    0.8880    0.0000 H   0  0  0  0  0  0  0  0  0  0  0  0
   -8.9320   -1.6630    0.0000 H   0  0  0  0  0  0  0  0  0  0  0  0
   -6.4760   -2.5090    0.0000 H   0  0  0  0  0  0  0  0  0  0  0  0
  1  2  1  0  0  0  0
  1 24  1  0  0  0  0
  1 25  1  0  0  0  0
  1 26  1  0  0  0  0
  2  3  1  0  0  0  0
  2  4  1  0  0  0  0
  2  5  1  0  0  0  0
  3 27  1  0  0  0  0
  3 28  1  0  0  0  0
  3 29  1  0  0  0  0
  4 30  1  0  0  0  0
  4 31  1  0  0  0  0
  4 32  1  0  0  0  0
  5  6  2  0  0  0  0
  5 10  1  0  0  0  0
  6  7  1  0  0  0  0
  6 33  1  0  0  0  0
  7  8  2  0  0  0  0
  7 34  1  0  0  0  0
  8  9  1  0  0  0  0
  8 35  1  0  0  0  0
  9 10  2  0  0  0  0
  9 12  1  0  0  0  0
 10 11  1  0  0  0  0
 11 36  1  0  0  0  0
 12 13  2  0  0  0  0
 12 20  1  0  0  0  0
 13 14  1  0  0  0  0
 14 15  2  0  0  0  0
 14 19  1  0  0  0  0
 15 16  1  0  0  0  0
 15 37  1  0  0  0  0
 16 17  2  0  0  0  0
 16 21  1  0  0  0  0
 17 18  1  0  0  0  0
 17 38  1  0  0  0  0
 18 19  2  0  0  0  0
 18 39  1  0  0  0  0
 19 20  1  0  0  0  0
 20 40  1  0  0  0  0
 21 22  2  0  0  0  0
 21 23  1  0  0  0  0
 22 41  1  0  0  0  0
 23 42  1  0  0  0  0
 23 43  1  0  0  0  0
M  END
$$$$
