2D_structures\o55_MMV1580850_2D.pdb
 OpenBabel02252417213D

 44 48  0  0  0  0  0  0  0  0999 V2000
    8.9870    0.5330    0.0000 F   0  0  0  0  0  0  0  0  0  0  0  0
    7.5240    0.2060    0.0000 C   0  0  0  0  0  0  0  0  0  0  0  0
    6.5080    1.3100    0.0000 C   0  0  0  0  0  0  0  0  0  0  0  0
    5.0440    0.9830    0.0000 C   0  0  0  0  0  0  0  0  0  0  0  0
    4.5960   -0.4480    0.0000 C   0  0  0  0  0  0  0  0  0  0  0  0
    5.6110   -1.5530    0.0000 C   0  0  0  0  0  0  0  0  0  0  0  0
    7.0750   -1.2250    0.0000 C   0  0  0  0  0  0  0  0  0  0  0  0
    3.1320   -0.7760    0.0000 N   0  0  0  0  0  0  0  0  0  0  0  0
    2.0070    0.2160    0.0000 C   0  0  0  0  0  0  0  0  0  0  0  0
    0.7160   -0.5470    0.0000 C   0  0  0  0  0  0  0  0  0  0  0  0
   -0.6610    0.0490    0.0000 C   0  0  0  0  0  0  0  0  0  0  0  0
   -2.0380    0.6440    0.0000 N   0  0  0  0  0  0  0  0  0  0  0  0
   -3.3290   -0.1190    0.0000 C   0  0  0  0  0  0  0  0  0  0  0  0
   -4.4540    0.8730    0.0000 N   0  0  0  0  0  0  0  0  0  0  0  0
   -3.8580    2.2490    0.0000 C   0  0  0  0  0  0  0  0  0  0  0  0
   -4.4830    3.6130    0.0000 C   0  0  0  0  0  0  0  0  0  0  0  0
   -3.6140    4.8360    0.0000 C   0  0  0  0  0  0  0  0  0  0  0  0
   -2.1200    4.6950    0.0000 C   0  0  0  0  0  0  0  0  0  0  0  0
   -1.4960    3.3310    0.0000 C   0  0  0  0  0  0  0  0  0  0  0  0
   -2.3650    2.1080    0.0000 C   0  0  0  0  0  0  0  0  0  0  0  0
   -3.4700   -1.6130    0.0000 C   0  0  0  0  0  0  0  0  0  0  0  0
   -2.2470   -2.4820    0.0000 C   0  0  0  0  0  0  0  0  0  0  0  0
   -2.3880   -3.9750    0.0000 C   0  0  0  0  0  0  0  0  0  0  0  0
   -3.7520   -4.5990    0.0000 C   0  0  0  0  0  0  0  0  0  0  0  0
   -4.9750   -3.7300    0.0000 C   0  0  0  0  0  0  0  0  0  0  0  0
   -6.3390   -4.3550    0.0000 F   0  0  0  0  0  0  0  0  0  0  0  0
   -4.8340   -2.2370    0.0000 C   0  0  0  0  0  0  0  0  0  0  0  0
    1.0430   -2.0110    0.0000 N   0  0  0  0  0  0  0  0  0  0  0  0
    2.5360   -2.1520    0.0000 N   0  0  0  0  0  0  0  0  0  0  0  0
    6.9570    2.7420    0.0000 H   0  0  0  0  0  0  0  0  0  0  0  0
    4.0290    2.0870    0.0000 H   0  0  0  0  0  0  0  0  0  0  0  0
    5.1620   -2.9840    0.0000 H   0  0  0  0  0  0  0  0  0  0  0  0
    8.0900   -2.3290    0.0000 H   0  0  0  0  0  0  0  0  0  0  0  0
    2.1480    1.7100    0.0000 H   0  0  0  0  0  0  0  0  0  0  0  0
   -1.0040   -1.1170    0.0000 H   0  0  0  0  0  0  0  0  0  0  0  0
   -0.0650    1.4250    0.0000 H   0  0  0  0  0  0  0  0  0  0  0  0
   -5.9760    3.7540    0.0000 H   0  0  0  0  0  0  0  0  0  0  0  0
   -4.2380    6.2000    0.0000 H   0  0  0  0  0  0  0  0  0  0  0  0
   -1.2510    5.9170    0.0000 H   0  0  0  0  0  0  0  0  0  0  0  0
   -0.0030    3.1900    0.0000 H   0  0  0  0  0  0  0  0  0  0  0  0
   -1.0890   -2.1140    0.0000 H   0  0  0  0  0  0  0  0  0  0  0  0
   -1.1660   -4.8440    0.0000 H   0  0  0  0  0  0  0  0  0  0  0  0
   -3.8930   -6.0930    0.0000 H   0  0  0  0  0  0  0  0  0  0  0  0
   -6.0560   -1.3680    0.0000 H   0  0  0  0  0  0  0  0  0  0  0  0
  1  2  1  0  0  0  0
  2  3  2  0  0  0  0
  2  7  1  0  0  0  0
  3  4  1  0  0  0  0
  3 30  1  0  0  0  0
  4  5  2  0  0  0  0
  4 31  1  0  0  0  0
  5  6  1  0  0  0  0
  5  8  1  0  0  0  0
  6  7  2  0  0  0  0
  6 32  1  0  0  0  0
  7 33  1  0  0  0  0
  8  9  1  0  0  0  0
  8 29  1  0  0  0  0
  9 10  2  0  0  0  0
  9 34  1  0  0  0  0
 10 11  1  0  0  0  0
 10 28  1  0  0  0  0
 11 12  1  0  0  0  0
 11 35  1  0  0  0  0
 11 36  1  0  0  0  0
 12 13  1  0  0  0  0
 12 20  1  0  0  0  0
 13 14  2  0  0  0  0
 13 21  1  0  0  0  0
 14 15  1  0  0  0  0
 15 16  2  0  0  0  0
 15 20  1  0  0  0  0
 16 17  1  0  0  0  0
 16 37  1  0  0  0  0
 17 18  2  0  0  0  0
 17 38  1  0  0  0  0
 18 19  1  0  0  0  0
 18 39  1  0  0  0  0
 19 20  2  0  0  0  0
 19 40  1  0  0  0  0
 21 22  2  0  0  0  0
 21 27  1  0  0  0  0
 22 23  1  0  0  0  0
 22 41  1  0  0  0  0
 23 24  2  0  0  0  0
 23 42  1  0  0  0  0
 24 25  1  0  0  0  0
 24 43  1  0  0  0  0
 25 26  1  0  0  0  0
 25 27  2  0  0  0  0
 27 44  1  0  0  0  0
 28 29  2  0  0  0  0
M  END
$$$$
