2D_structures\o56_MMV002740_2D.pdb
 OpenBabel02252417213D

 47 50  0  0  1  0  0  0  0  0999 V2000
    6.1520    1.7800    0.0000 C   0  0  0  0  0  0  0  0  0  0  0  0
    5.4310    0.4650    0.0000 C   0  0  0  0  0  0  0  0  0  0  0  0
    3.9440    0.2740    0.0000 C   0  0  0  0  0  0  0  0  0  0  0  0
    2.9150    1.3660    0.0000 C   0  0  0  0  0  0  0  0  0  0  0  0
    3.3460    2.8030    0.0000 O   0  0  0  0  0  0  0  0  0  0  0  0
    1.4550    1.0210    0.0000 N   0  0  0  0  0  0  0  0  0  0  0  0
    0.4260    2.1120    0.0000 C   0  0  1  0  0  0  0  0  0  0  0  0
   -0.6650    1.0840    0.0000 C   0  0  1  0  0  0  0  0  0  0  0  0
   -1.3860   -0.2320    0.0000 S   0  0  0  0  0  0  0  0  0  0  0  0
   -2.8600    0.0470    0.0000 C   0  0  0  0  0  0  0  0  0  0  0  0
   -2.9830   -1.4480    0.0000 C   0  0  0  0  0  0  0  0  0  0  0  0
   -4.3590    0.0120    0.0000 C   0  0  0  0  0  0  0  0  0  0  0  0
   -3.0500    1.5340    0.0000 C   0  0  0  0  0  0  0  0  0  0  0  0
   -1.6940    2.1750    0.0000 N   0  0  0  0  0  0  0  0  0  0  0  0
   -0.6020    3.2040    0.0000 C   0  0  0  0  0  0  0  0  0  0  0  0
   -0.5580    4.7030    0.0000 O   0  0  0  0  0  0  0  0  0  0  0  0
   -4.5100    1.1890    0.0000 C   0  0  0  0  0  0  0  0  0  0  0  0
   -5.5390    2.2810    0.0000 O   0  0  0  0  0  0  0  0  0  0  0  0
   -5.2760   -0.1000    0.0000 O   0  0  0  0  0  0  0  0  0  0  0  0
    3.6650   -1.2000    0.0000 C   0  0  0  0  0  0  0  0  0  0  0  0
    4.9810   -1.9200    0.0000 N   0  0  0  0  0  0  0  0  0  0  0  0
    6.0720   -0.8910    0.0000 O   0  0  0  0  0  0  0  0  0  0  0  0
    2.3090   -1.8410    0.0000 C   0  0  0  0  0  0  0  0  0  0  0  0
    1.0760   -0.9870    0.0000 C   0  0  0  0  0  0  0  0  0  0  0  0
    1.0440   -0.1900    0.0000 Cl  0  0  0  0  0  0  0  0  0  0  0  0
   -0.2800   -1.6280    0.0000 C   0  0  0  0  0  0  0  0  0  0  0  0
   -0.4030   -3.1230    0.0000 C   0  0  0  0  0  0  0  0  0  0  0  0
    0.8300   -3.9770    0.0000 C   0  0  0  0  0  0  0  0  0  0  0  0
    2.1860   -3.3360    0.0000 C   0  0  0  0  0  0  0  0  0  0  0  0
    6.8720    3.0960    0.0000 H   0  0  0  0  0  0  0  0  0  0  0  0
    7.4670    1.0600    0.0000 H   0  0  0  0  0  0  0  0  0  0  0  0
    4.8360    2.5010    0.0000 H   0  0  0  0  0  0  0  0  0  0  0  0
    1.0990    0.2100    0.0000 H   0  0  0  0  0  0  0  0  0  0  0  0
    1.5180    3.1410    0.0000 H   0  0  0  0  0  0  0  0  0  0  0  0
    0.5210    0.1660    0.0000 H   0  0  0  0  0  0  0  0  0  0  0  0
   -3.1050   -2.9430    0.0000 H   0  0  0  0  0  0  0  0  0  0  0  0
   -4.4810   -1.5090    0.0000 H   0  0  0  0  0  0  0  0  0  0  0  0
   -1.4840   -1.3880    0.0000 H   0  0  0  0  0  0  0  0  0  0  0  0
   -5.8590   -0.0220    0.0000 H   0  0  0  0  0  0  0  0  0  0  0  0
   -4.7550    1.4590    0.0000 H   0  0  0  0  0  0  0  0  0  0  0  0
   -4.5080   -1.4800    0.0000 H   0  0  0  0  0  0  0  0  0  0  0  0
   -3.5460    2.9500    0.0000 H   0  0  0  0  0  0  0  0  0  0  0  0
   -6.9980    1.9360    0.0000 H   0  0  0  0  0  0  0  0  0  0  0  0
   -1.6090   -0.9310    0.0000 H   0  0  0  0  0  0  0  0  0  0  0  0
   -1.7600   -3.7640    0.0000 H   0  0  0  0  0  0  0  0  0  0  0  0
    0.7070   -5.4720    0.0000 H   0  0  0  0  0  0  0  0  0  0  0  0
    3.4190   -4.1900    0.0000 H   0  0  0  0  0  0  0  0  0  0  0  0
  1  2  1  0  0  0  0
  1 30  1  0  0  0  0
  1 31  1  0  0  0  0
  1 32  1  0  0  0  0
  2  3  2  0  0  0  0
  2 22  1  0  0  0  0
  3  4  1  0  0  0  0
  3 20  1  0  0  0  0
  4  5  2  0  0  0  0
  4  6  1  0  0  0  0
  6  7  1  0  0  0  0
  6 33  1  0  0  0  0
  7  8  1  0  0  0  0
  7 15  1  0  0  0  0
  7 34  1  6  0  0  0
  8  9  1  0  0  0  0
  8 14  1  0  0  0  0
  8 35  1  6  0  0  0
  9 10  1  0  0  0  0
 10 11  1  0  0  0  0
 10 12  1  0  0  0  0
 10 13  2  0  0  0  0
 11 36  1  0  0  0  0
 11 37  1  0  0  0  0
 11 38  1  0  0  0  0
 12 39  1  0  0  0  0
 12 40  1  0  0  0  0
 12 41  1  0  0  0  0
 13 14  1  0  0  0  0
 13 17  1  0  0  0  0
 13 42  1  0  0  0  0
 14 15  1  0  0  0  0
 15 16  2  0  0  0  0
 17 18  1  0  0  0  0
 17 19  2  0  0  0  0
 18 43  1  0  0  0  0
 20 21  2  0  0  0  0
 20 23  1  0  0  0  0
 21 22  1  0  0  0  0
 23 24  2  0  0  0  0
 23 29  1  0  0  0  0
 24 25  1  0  0  0  0
 24 26  1  0  0  0  0
 26 27  2  0  0  0  0
 26 44  1  0  0  0  0
 27 28  1  0  0  0  0
 27 45  1  0  0  0  0
 28 29  2  0  0  0  0
 28 46  1  0  0  0  0
 29 47  1  0  0  0  0
M  END
$$$$
