2D_structures\o57_MMV1579783_2D.pdb
 OpenBabel02252417213D

 44 46  0  0  0  0  0  0  0  0999 V2000
   -7.7490   -1.4460    0.0000 C   0  0  0  0  0  0  0  0  0  0  0  0
   -6.2500   -1.4010    0.0000 C   0  0  0  0  0  0  0  0  0  0  0  0
   -4.7510   -1.3550    0.0000 C   0  0  0  0  0  0  0  0  0  0  0  0
   -3.2520   -1.3100    0.0000 C   0  0  0  0  0  0  0  0  0  0  0  0
   -1.7520   -1.2640    0.0000 S   0  0  0  0  0  0  0  0  0  0  0  0
   -1.0420    0.0570    0.0000 C   0  0  0  0  0  0  0  0  0  0  0  0
   -1.8310    1.3330    0.0000 N   0  0  0  0  0  0  0  0  0  0  0  0
   -1.1210    2.6540    0.0000 C   0  0  0  0  0  0  0  0  0  0  0  0
   -1.9100    3.9300    0.0000 N   0  0  0  0  0  0  0  0  0  0  0  0
    0.3780    2.6990    0.0000 C   0  0  0  0  0  0  0  0  0  0  0  0
    1.0890    4.0210    0.0000 N   0  0  0  0  0  0  0  0  0  0  0  0
    2.5880    4.0660    0.0000 C   0  0  0  0  0  0  0  0  0  0  0  0
    3.2980    5.3870    0.0000 O   0  0  0  0  0  0  0  0  0  0  0  0
    3.3770    2.7900    0.0000 C   0  0  0  0  0  0  0  0  0  0  0  0
    4.8760    2.8360    0.0000 O   0  0  0  0  0  0  0  0  0  0  0  0
    2.6670    1.4690    0.0000 N   0  0  0  0  0  0  0  0  0  0  0  0
    3.4560    0.1940    0.0000 C   0  0  0  0  0  0  0  0  0  0  0  0
    4.2450   -1.0820    0.0000 C   0  0  0  0  0  0  0  0  0  0  0  0
    3.5350   -2.4030    0.0000 C   0  0  0  0  0  0  0  0  0  0  0  0
    4.3240   -3.6790    0.0000 C   0  0  0  0  0  0  0  0  0  0  0  0
    5.8230   -3.6340    0.0000 C   0  0  0  0  0  0  0  0  0  0  0  0
    6.5330   -2.3120    0.0000 C   0  0  0  0  0  0  0  0  0  0  0  0
    5.7440   -1.0370    0.0000 C   0  0  0  0  0  0  0  0  0  0  0  0
    1.1680    1.4240    0.0000 C   0  0  0  0  0  0  0  0  0  0  0  0
    0.4570    0.1020    0.0000 N   0  0  0  0  0  0  0  0  0  0  0  0
   -9.2490   -1.4920    0.0000 H   0  0  0  0  0  0  0  0  0  0  0  0
   -7.7950    0.0530    0.0000 H   0  0  0  0  0  0  0  0  0  0  0  0
   -7.7040   -2.9460    0.0000 H   0  0  0  0  0  0  0  0  0  0  0  0
   -6.2960    0.0990    0.0000 H   0  0  0  0  0  0  0  0  0  0  0  0
   -6.2050   -2.9000    0.0000 H   0  0  0  0  0  0  0  0  0  0  0  0
   -4.7050   -2.8550    0.0000 H   0  0  0  0  0  0  0  0  0  0  0  0
   -4.7960    0.1440    0.0000 H   0  0  0  0  0  0  0  0  0  0  0  0
   -3.2970    0.1900    0.0000 H   0  0  0  0  0  0  0  0  0  0  0  0
   -3.2060   -2.8090    0.0000 H   0  0  0  0  0  0  0  0  0  0  0  0
   -3.4090    3.8840    0.0000 H   0  0  0  0  0  0  0  0  0  0  0  0
   -1.2000    5.2510    0.0000 H   0  0  0  0  0  0  0  0  0  0  0  0
    0.3000    5.2960    0.0000 H   0  0  0  0  0  0  0  0  0  0  0  0
    4.7320    0.9830    0.0000 H   0  0  0  0  0  0  0  0  0  0  0  0
    2.1800   -0.5960    0.0000 H   0  0  0  0  0  0  0  0  0  0  0  0
    2.0350   -2.4490    0.0000 H   0  0  0  0  0  0  0  0  0  0  0  0
    3.6140   -5.0000    0.0000 H   0  0  0  0  0  0  0  0  0  0  0  0
    6.6120   -4.9090    0.0000 H   0  0  0  0  0  0  0  0  0  0  0  0
    8.0330   -2.2670    0.0000 H   0  0  0  0  0  0  0  0  0  0  0  0
    6.4550    0.2850    0.0000 H   0  0  0  0  0  0  0  0  0  0  0  0
  1  2  1  0  0  0  0
  1 26  1  0  0  0  0
  1 27  1  0  0  0  0
  1 28  1  0  0  0  0
  2  3  1  0  0  0  0
  2 29  1  0  0  0  0
  2 30  1  0  0  0  0
  3  4  1  0  0  0  0
  3 31  1  0  0  0  0
  3 32  1  0  0  0  0
  4  5  1  0  0  0  0
  4 33  1  0  0  0  0
  4 34  1  0  0  0  0
  5  6  1  0  0  0  0
  6  7  2  0  0  0  0
  6 25  1  0  0  0  0
  7  8  1  0  0  0  0
  8  9  1  0  0  0  0
  8 10  2  0  0  0  0
  9 35  1  0  0  0  0
  9 36  1  0  0  0  0
 10 11  1  0  0  0  0
 10 24  1  0  0  0  0
 11 12  1  0  0  0  0
 11 37  1  0  0  0  0
 12 13  2  0  0  0  0
 12 14  1  0  0  0  0
 14 15  2  0  0  0  0
 14 16  1  0  0  0  0
 16 17  1  0  0  0  0
 16 24  1  0  0  0  0
 17 18  1  0  0  0  0
 17 38  1  0  0  0  0
 17 39  1  0  0  0  0
 18 19  2  0  0  0  0
 18 23  1  0  0  0  0
 19 20  1  0  0  0  0
 19 40  1  0  0  0  0
 20 21  2  0  0  0  0
 20 41  1  0  0  0  0
 21 22  1  0  0  0  0
 21 42  1  0  0  0  0
 22 23  2  0  0  0  0
 22 43  1  0  0  0  0
 23 44  1  0  0  0  0
 24 25  2  0  0  0  0
M  END
$$$$
