2D_structures\o5_MMV637528_2D.pdb
 OpenBabel02252417213D

 87 93  0  0  1  0  0  0  0  0999 V2000
   10.1020    3.7600    0.0000 Cl  0  0  0  0  0  0  0  0  0  0  0  0
   11.2010    2.7390    0.0000 C   0  0  0  0  0  0  0  0  0  0  0  0
   10.8670    1.2770    0.0000 C   0  0  0  0  0  0  0  0  0  0  0  0
   11.9660    0.2560    0.0000 C   0  0  0  0  0  0  0  0  0  0  0  0
   13.3990    0.6980    0.0000 C   0  0  0  0  0  0  0  0  0  0  0  0
   13.7340    2.1600    0.0000 C   0  0  0  0  0  0  0  0  0  0  0  0
   12.6340    3.1810    0.0000 C   0  0  0  0  0  0  0  0  0  0  0  0
   15.1670    2.6020    0.0000 Cl  0  0  0  0  0  0  0  0  0  0  0  0
    9.4330    0.8350    0.0000 C   0  0  1  0  0  0  0  0  0  0  0  0
    8.1230    0.1050    0.0000 O   0  0  0  0  0  0  0  0  0  0  0  0
    7.0240    1.1260    0.0000 C   0  0  0  0  0  0  0  0  0  0  0  0
    6.1230   -0.0740    0.0000 C   0  0  0  0  0  0  0  0  0  0  0  0
    5.2230   -1.2740    0.0000 O   0  0  0  0  0  0  0  0  0  0  0  0
    3.7340   -1.0940    0.0000 C   0  0  0  0  0  0  0  0  0  0  0  0
    3.1450    0.2850    0.0000 C   0  0  0  0  0  0  0  0  0  0  0  0
    1.6560    0.4650    0.0000 C   0  0  0  0  0  0  0  0  0  0  0  0
    0.7560   -0.7350    0.0000 C   0  0  0  0  0  0  0  0  0  0  0  0
   -0.7340   -0.5550    0.0000 N   0  0  0  0  0  0  0  0  0  0  0  0
   -1.3230    0.8240    0.0000 C   0  0  0  0  0  0  0  0  0  0  0  0
   -2.8120    1.0040    0.0000 C   0  0  0  0  0  0  0  0  0  0  0  0
   -3.7120   -0.1960    0.0000 N   0  0  0  0  0  0  0  0  0  0  0  0
   -5.2010   -0.0170    0.0000 C   0  0  0  0  0  0  0  0  0  0  0  0
   -5.7900    1.3630    0.0000 C   0  0  0  0  0  0  0  0  0  0  0  0
   -7.2790    1.5420    0.0000 C   0  0  0  0  0  0  0  0  0  0  0  0
   -8.1800    0.3430    0.0000 C   0  0  0  0  0  0  0  0  0  0  0  0
   -9.6690    0.5220    0.0000 N   0  0  0  0  0  0  0  0  0  0  0  0
  -10.6890   -0.5770    0.0000 C   0  0  0  0  0  0  0  0  0  0  0  0
  -10.4000   -2.0490    0.0000 O   0  0  0  0  0  0  0  0  0  0  0  0
  -12.0500    0.0540    0.0000 N   0  0  0  0  0  0  0  0  0  0  0  0
  -13.3610   -0.6760    0.0000 C   0  0  1  0  0  0  0  0  0  0  0  0
  -14.0910    0.6340    0.0000 C   0  0  0  0  0  0  0  0  0  0  0  0
  -14.8210    1.9450    0.0000 C   0  0  0  0  0  0  0  0  0  0  0  0
  -12.6310   -1.9870    0.0000 C   0  0  0  0  0  0  0  0  0  0  0  0
  -11.8710    1.5430    0.0000 N   0  0  0  0  0  0  0  0  0  0  0  0
  -10.3990    1.8320    0.0000 C   0  0  0  0  0  0  0  0  0  0  0  0
   -7.5900   -1.0370    0.0000 C   0  0  0  0  0  0  0  0  0  0  0  0
   -6.1010   -1.2170    0.0000 C   0  0  0  0  0  0  0  0  0  0  0  0
   -3.1230   -1.5760    0.0000 C   0  0  0  0  0  0  0  0  0  0  0  0
   -1.6340   -1.7550    0.0000 C   0  0  0  0  0  0  0  0  0  0  0  0
    1.3450   -2.1150    0.0000 C   0  0  0  0  0  0  0  0  0  0  0  0
    2.8340   -2.2940    0.0000 C   0  0  0  0  0  0  0  0  0  0  0  0
    7.6550    2.4870    0.0000 C   0  0  0  0  0  0  0  0  0  0  0  0
    9.1440    2.3070    0.0000 O   0  0  0  0  0  0  0  0  0  0  0  0
   10.0220   -0.5440    0.0000 C   0  0  0  0  0  0  0  0  0  0  0  0
   10.6110   -1.9240    0.0000 N   0  0  0  0  0  0  0  0  0  0  0  0
   12.0740   -2.2580    0.0000 N   0  0  0  0  0  0  0  0  0  0  0  0
   12.2080   -3.7520    0.0000 C   0  0  0  0  0  0  0  0  0  0  0  0
   10.8280   -4.3410    0.0000 N   0  0  0  0  0  0  0  0  0  0  0  0
    9.8420   -3.2110    0.0000 C   0  0  0  0  0  0  0  0  0  0  0  0
   11.6320   -1.2060    0.0000 H   0  0  0  0  0  0  0  0  0  0  0  0
   14.4990   -0.3230    0.0000 H   0  0  0  0  0  0  0  0  0  0  0  0
   12.9690    4.6430    0.0000 H   0  0  0  0  0  0  0  0  0  0  0  0
    5.7360    1.8960    0.0000 H   0  0  0  0  0  0  0  0  0  0  0  0
    4.9240    0.8260    0.0000 H   0  0  0  0  0  0  0  0  0  0  0  0
    7.3230   -0.9740    0.0000 H   0  0  0  0  0  0  0  0  0  0  0  0
    4.0450    1.4850    0.0000 H   0  0  0  0  0  0  0  0  0  0  0  0
    1.0670    1.8440    0.0000 H   0  0  0  0  0  0  0  0  0  0  0  0
   -1.4040    2.3220    0.0000 H   0  0  0  0  0  0  0  0  0  0  0  0
    0.1380    1.1650    0.0000 H   0  0  0  0  0  0  0  0  0  0  0  0
   -4.1500    1.6820    0.0000 H   0  0  0  0  0  0  0  0  0  0  0  0
   -2.3760    2.4390    0.0000 H   0  0  0  0  0  0  0  0  0  0  0  0
   -4.8900    2.5630    0.0000 H   0  0  0  0  0  0  0  0  0  0  0  0
   -7.8680    2.9220    0.0000 H   0  0  0  0  0  0  0  0  0  0  0  0
  -14.6710   -1.4060    0.0000 H   0  0  0  0  0  0  0  0  0  0  0  0
  -12.7800    1.3640    0.0000 H   0  0  0  0  0  0  0  0  0  0  0  0
  -15.4010   -0.0960    0.0000 H   0  0  0  0  0  0  0  0  0  0  0  0
  -15.5510    3.2550    0.0000 H   0  0  0  0  0  0  0  0  0  0  0  0
  -16.1310    1.2150    0.0000 H   0  0  0  0  0  0  0  0  0  0  0  0
  -13.5100    2.6750    0.0000 H   0  0  0  0  0  0  0  0  0  0  0  0
  -11.9010   -3.2970    0.0000 H   0  0  0  0  0  0  0  0  0  0  0  0
  -13.9410   -2.7170    0.0000 H   0  0  0  0  0  0  0  0  0  0  0  0
  -11.3200   -1.2560    0.0000 H   0  0  0  0  0  0  0  0  0  0  0  0
   -9.7680    3.1930    0.0000 H   0  0  0  0  0  0  0  0  0  0  0  0
   -8.4910   -2.2370    0.0000 H   0  0  0  0  0  0  0  0  0  0  0  0
   -5.5120   -2.5960    0.0000 H   0  0  0  0  0  0  0  0  0  0  0  0
   -3.0410   -3.0740    0.0000 H   0  0  0  0  0  0  0  0  0  0  0  0
   -4.5840   -1.9160    0.0000 H   0  0  0  0  0  0  0  0  0  0  0  0
   -0.2960   -2.4330    0.0000 H   0  0  0  0  0  0  0  0  0  0  0  0
   -2.0690   -3.1910    0.0000 H   0  0  0  0  0  0  0  0  0  0  0  0
    0.4450   -3.3140    0.0000 H   0  0  0  0  0  0  0  0  0  0  0  0
    3.4230   -3.6740    0.0000 H   0  0  0  0  0  0  0  0  0  0  0  0
    6.2350    2.9720    0.0000 H   0  0  0  0  0  0  0  0  0  0  0  0
    7.9890    3.9490    0.0000 H   0  0  0  0  0  0  0  0  0  0  0  0
    8.6430   -1.1330    0.0000 H   0  0  0  0  0  0  0  0  0  0  0  0
   11.3550   -0.3300    0.0000 H   0  0  0  0  0  0  0  0  0  0  0  0
   13.4950   -4.5220    0.0000 H   0  0  0  0  0  0  0  0  0  0  0  0
    8.3480   -3.3450    0.0000 H   0  0  0  0  0  0  0  0  0  0  0  0
  1  2  1  0  0  0  0
  2  3  2  0  0  0  0
  2  7  1  0  0  0  0
  3  4  1  0  0  0  0
  3  9  1  0  0  0  0
  4  5  2  0  0  0  0
  4 50  1  0  0  0  0
  5  6  1  0  0  0  0
  5 51  1  0  0  0  0
  6  7  2  0  0  0  0
  6  8  1  0  0  0  0
  7 52  1  0  0  0  0
  9 10  1  0  0  0  0
  9 43  1  0  0  0  0
  9 44  1  6  0  0  0
 10 11  1  0  0  0  0
 11 12  1  0  0  0  0
 11 42  2  0  0  0  0
 11 53  1  0  0  0  0
 12 13  1  0  0  0  0
 12 54  1  0  0  0  0
 12 55  1  0  0  0  0
 13 14  1  0  0  0  0
 14 15  2  0  0  0  0
 14 41  1  0  0  0  0
 15 16  1  0  0  0  0
 15 56  1  0  0  0  0
 16 17  2  0  0  0  0
 16 57  1  0  0  0  0
 17 18  1  0  0  0  0
 17 40  1  0  0  0  0
 18 19  1  0  0  0  0
 18 39  1  0  0  0  0
 19 20  1  0  0  0  0
 19 58  1  0  0  0  0
 19 59  1  0  0  0  0
 20 21  1  0  0  0  0
 20 60  1  0  0  0  0
 20 61  1  0  0  0  0
 21 22  1  0  0  0  0
 21 38  1  0  0  0  0
 22 23  2  0  0  0  0
 22 37  1  0  0  0  0
 23 24  1  0  0  0  0
 23 62  1  0  0  0  0
 24 25  2  0  0  0  0
 24 63  1  0  0  0  0
 25 26  1  0  0  0  0
 25 36  1  0  0  0  0
 26 27  1  0  0  0  0
 26 35  1  0  0  0  0
 27 28  2  0  0  0  0
 27 29  1  0  0  0  0
 29 30  1  0  0  0  0
 29 34  1  0  0  0  0
 30 31  1  0  0  0  0
 30 33  1  0  0  0  0
 30 64  1  1  0  0  0
 31 32  1  0  0  0  0
 31 65  1  0  0  0  0
 31 66  1  0  0  0  0
 32 67  1  0  0  0  0
 32 68  1  0  0  0  0
 32 69  1  0  0  0  0
 33 70  1  0  0  0  0
 33 71  1  0  0  0  0
 33 72  1  0  0  0  0
 34 35  2  0  0  0  0
 35 73  1  0  0  0  0
 36 37  2  0  0  0  0
 36 74  1  0  0  0  0
 37 75  1  0  0  0  0
 38 39  1  0  0  0  0
 38 76  1  0  0  0  0
 38 77  1  0  0  0  0
 39 78  1  0  0  0  0
 39 79  1  0  0  0  0
 40 41  2  0  0  0  0
 40 80  1  0  0  0  0
 41 81  1  0  0  0  0
 42 43  1  0  0  0  0
 42 82  1  0  0  0  0
 42 83  1  0  0  0  0
 44 45  1  0  0  0  0
 44 84  1  0  0  0  0
 44 85  1  0  0  0  0
 45 46  1  0  0  0  0
 45 49  1  0  0  0  0
 46 47  2  0  0  0  0
 47 48  1  0  0  0  0
 47 86  1  0  0  0  0
 48 49  2  0  0  0  0
 49 87  1  0  0  0  0
M  END
$$$$
