2D_structures\o60_MMV1578572_2D.pdb
 OpenBabel02252417213D

 56 59  0  0  0  0  0  0  0  0999 V2000
    7.6540   -3.4980    0.0000 C   0  0  0  0  0  0  0  0  0  0  0  0
    8.0270   -2.0460    0.0000 O   0  0  0  0  0  0  0  0  0  0  0  0
    6.9560   -0.9960    0.0000 C   0  0  0  0  0  0  0  0  0  0  0  0
    5.5110   -1.3990    0.0000 C   0  0  0  0  0  0  0  0  0  0  0  0
    4.4390   -0.3500    0.0000 C   0  0  0  0  0  0  0  0  0  0  0  0
    2.9940   -0.7530    0.0000 N   0  0  0  0  0  0  0  0  0  0  0  0
    1.9230    0.2970    0.0000 C   0  0  0  0  0  0  0  0  0  0  0  0
    2.2960    1.7500    0.0000 O   0  0  0  0  0  0  0  0  0  0  0  0
    0.4780   -0.1060    0.0000 C   0  0  0  0  0  0  0  0  0  0  0  0
   -0.9670   -0.5100    0.0000 N   0  0  0  0  0  0  0  0  0  0  0  0
   -1.4900   -1.9150    0.0000 C   0  0  0  0  0  0  0  0  0  0  0  0
   -0.6600   -3.1650    0.0000 O   0  0  0  0  0  0  0  0  0  0  0  0
   -2.9880   -1.8520    0.0000 N   0  0  0  0  0  0  0  0  0  0  0  0
   -3.3920   -0.4080    0.0000 C   0  0  0  0  0  0  0  0  0  0  0  0
   -2.1420    0.4220    0.0000 C   0  0  0  0  0  0  0  0  0  0  0  0
   -1.8970    1.9020    0.0000 O   0  0  0  0  0  0  0  0  0  0  0  0
   -4.7860   -0.9600    0.0000 C   0  0  0  0  0  0  0  0  0  0  0  0
   -5.0060   -2.4440    0.0000 C   0  0  0  0  0  0  0  0  0  0  0  0
   -6.4000   -2.9960    0.0000 C   0  0  0  0  0  0  0  0  0  0  0  0
   -7.5760   -2.0640    0.0000 C   0  0  0  0  0  0  0  0  0  0  0  0
   -7.3570   -0.5800    0.0000 C   0  0  0  0  0  0  0  0  0  0  0  0
   -5.9620   -0.0280    0.0000 C   0  0  0  0  0  0  0  0  0  0  0  0
   -4.0860    0.9220    0.0000 C   0  0  0  0  0  0  0  0  0  0  0  0
   -3.2830    2.1880    0.0000 C   0  0  0  0  0  0  0  0  0  0  0  0
   -3.9770    3.5180    0.0000 C   0  0  0  0  0  0  0  0  0  0  0  0
   -5.4760    3.5810    0.0000 C   0  0  0  0  0  0  0  0  0  0  0  0
   -6.2800    2.3140    0.0000 C   0  0  0  0  0  0  0  0  0  0  0  0
   -5.5850    0.9850    0.0000 C   0  0  0  0  0  0  0  0  0  0  0  0
    4.8120    1.1030    0.0000 C   0  0  0  0  0  0  0  0  0  0  0  0
    6.2570    1.5060    0.0000 C   0  0  0  0  0  0  0  0  0  0  0  0
    6.6300    2.9590    0.0000 O   0  0  0  0  0  0  0  0  0  0  0  0
    8.0750    3.3630    0.0000 C   0  0  0  0  0  0  0  0  0  0  0  0
    7.3290    0.4570    0.0000 C   0  0  0  0  0  0  0  0  0  0  0  0
    7.2810   -4.9510    0.0000 H   0  0  0  0  0  0  0  0  0  0  0  0
    9.1070   -3.8720    0.0000 H   0  0  0  0  0  0  0  0  0  0  0  0
    6.2010   -3.1250    0.0000 H   0  0  0  0  0  0  0  0  0  0  0  0
    5.1380   -2.8520    0.0000 H   0  0  0  0  0  0  0  0  0  0  0  0
    2.6210   -2.2060    0.0000 H   0  0  0  0  0  0  0  0  0  0  0  0
    0.0750    1.3380    0.0000 H   0  0  0  0  0  0  0  0  0  0  0  0
    0.8810   -1.5510    0.0000 H   0  0  0  0  0  0  0  0  0  0  0  0
   -3.5010   -2.6920    0.0000 H   0  0  0  0  0  0  0  0  0  0  0  0
   -4.3150   -3.1440    0.0000 H   0  0  0  0  0  0  0  0  0  0  0  0
   -6.6200   -4.4790    0.0000 H   0  0  0  0  0  0  0  0  0  0  0  0
   -8.9710   -2.6160    0.0000 H   0  0  0  0  0  0  0  0  0  0  0  0
   -8.5320    0.3520    0.0000 H   0  0  0  0  0  0  0  0  0  0  0  0
   -6.0400    0.7660    0.0000 H   0  0  0  0  0  0  0  0  0  0  0  0
   -1.7870    2.3080    0.0000 H   0  0  0  0  0  0  0  0  0  0  0  0
   -3.1730    4.7840    0.0000 H   0  0  0  0  0  0  0  0  0  0  0  0
   -6.1710    4.9100    0.0000 H   0  0  0  0  0  0  0  0  0  0  0  0
   -7.7790    2.3770    0.0000 H   0  0  0  0  0  0  0  0  0  0  0  0
   -6.6720   -0.0490    0.0000 H   0  0  0  0  0  0  0  0  0  0  0  0
    3.7410    2.1530    0.0000 H   0  0  0  0  0  0  0  0  0  0  0  0
    9.5200    3.7660    0.0000 H   0  0  0  0  0  0  0  0  0  0  0  0
    7.6720    4.8070    0.0000 H   0  0  0  0  0  0  0  0  0  0  0  0
    8.4780    1.9180    0.0000 H   0  0  0  0  0  0  0  0  0  0  0  0
    8.7740    0.8600    0.0000 H   0  0  0  0  0  0  0  0  0  0  0  0
  1  2  1  0  0  0  0
  1 34  1  0  0  0  0
  1 35  1  0  0  0  0
  1 36  1  0  0  0  0
  2  3  1  0  0  0  0
  3  4  2  0  0  0  0
  3 33  1  0  0  0  0
  4  5  1  0  0  0  0
  4 37  1  0  0  0  0
  5  6  1  0  0  0  0
  5 29  2  0  0  0  0
  6  7  1  0  0  0  0
  6 38  1  0  0  0  0
  7  8  2  0  0  0  0
  7  9  1  0  0  0  0
  9 10  1  0  0  0  0
  9 39  1  0  0  0  0
  9 40  1  0  0  0  0
 10 11  1  0  0  0  0
 10 15  1  0  0  0  0
 11 12  2  0  0  0  0
 11 13  1  0  0  0  0
 13 14  1  0  0  0  0
 13 41  1  0  0  0  0
 14 15  1  0  0  0  0
 14 17  1  0  0  0  0
 14 23  1  0  0  0  0
 15 16  2  0  0  0  0
 17 18  2  0  0  0  0
 17 22  1  0  0  0  0
 18 19  1  0  0  0  0
 18 42  1  0  0  0  0
 19 20  2  0  0  0  0
 19 43  1  0  0  0  0
 20 21  1  0  0  0  0
 20 44  1  0  0  0  0
 21 22  2  0  0  0  0
 21 45  1  0  0  0  0
 22 46  1  0  0  0  0
 23 24  2  0  0  0  0
 23 28  1  0  0  0  0
 24 25  1  0  0  0  0
 24 47  1  0  0  0  0
 25 26  2  0  0  0  0
 25 48  1  0  0  0  0
 26 27  1  0  0  0  0
 26 49  1  0  0  0  0
 27 28  2  0  0  0  0
 27 50  1  0  0  0  0
 28 51  1  0  0  0  0
 29 30  1  0  0  0  0
 29 52  1  0  0  0  0
 30 31  1  0  0  0  0
 30 33  2  0  0  0  0
 31 32  1  0  0  0  0
 32 53  1  0  0  0  0
 32 54  1  0  0  0  0
 32 55  1  0  0  0  0
 33 56  1  0  0  0  0
M  END
$$$$
