2D_structures\o61_MMV1578568_2D.pdb
 OpenBabel02252417213D

 61 66  0  0  1  0  0  0  0  0999 V2000
    6.3700    3.9850    0.0000 O   0  0  0  0  0  0  0  0  0  0  0  0
    7.1590    2.7090    0.0000 C   0  0  0  0  0  0  0  0  0  0  0  0
    8.6580    2.7550    0.0000 C   0  0  0  0  0  0  0  0  0  0  0  0
    9.4470    1.4790    0.0000 C   0  0  0  0  0  0  0  0  0  0  0  0
    8.7370    0.1580    0.0000 C   0  0  0  0  0  0  0  0  0  0  0  0
    7.2380    0.1120    0.0000 C   0  0  0  0  0  0  0  0  0  0  0  0
    6.4490    1.3880    0.0000 N   0  0  0  0  0  0  0  0  0  0  0  0
    5.0370    0.8820    0.0000 C   0  0  0  0  0  0  0  0  0  0  0  0
    5.0820   -0.6180    0.0000 C   0  0  1  0  0  0  0  0  0  0  0  0
    3.5860   -0.5060    0.0000 C   0  0  0  0  0  0  0  0  0  0  0  0
    2.0910   -0.3950    0.0000 N   0  0  0  0  0  0  0  0  0  0  0  0
    1.4390    0.9560    0.0000 C   0  0  0  0  0  0  0  0  0  0  0  0
   -0.0570    1.0680    0.0000 C   0  0  0  0  0  0  0  0  0  0  0  0
   -0.9010   -0.1720    0.0000 C   0  0  1  0  0  0  0  0  0  0  0  0
   -0.2500   -1.5230    0.0000 C   0  0  0  0  0  0  0  0  0  0  0  0
    1.2460   -1.6340    0.0000 C   0  0  0  0  0  0  0  0  0  0  0  0
   -2.1190   -1.0480    0.0000 N   0  0  0  0  0  0  0  0  0  0  0  0
   -3.4860   -0.4310    0.0000 C   0  0  0  0  0  0  0  0  0  0  0  0
   -4.8540    0.1850    0.0000 C   0  0  0  0  0  0  0  0  0  0  0  0
   -6.0710   -0.6910    0.0000 C   0  0  0  0  0  0  0  0  0  0  0  0
   -7.4390   -0.0750    0.0000 C   0  0  0  0  0  0  0  0  0  0  0  0
   -8.6560   -0.9510    0.0000 C   0  0  0  0  0  0  0  0  0  0  0  0
  -10.0240   -0.3340    0.0000 C   0  0  0  0  0  0  0  0  0  0  0  0
  -10.1740    1.1580    0.0000 C   0  0  0  0  0  0  0  0  0  0  0  0
   -8.9560    2.0340    0.0000 O   0  0  0  0  0  0  0  0  0  0  0  0
   -7.5890    1.4180    0.0000 C   0  0  0  0  0  0  0  0  0  0  0  0
   -6.3710    2.2940    0.0000 C   0  0  0  0  0  0  0  0  0  0  0  0
   -5.0040    1.6770    0.0000 N   0  0  0  0  0  0  0  0  0  0  0  0
    6.5270   -1.2090    0.0000 N   0  0  0  0  0  0  0  0  0  0  0  0
    7.3170   -2.4840    0.0000 C   0  0  0  0  0  0  0  0  0  0  0  0
    6.6060   -3.8060    0.0000 O   0  0  0  0  0  0  0  0  0  0  0  0
    8.8160   -2.4390    0.0000 C   0  0  0  0  0  0  0  0  0  0  0  0
    9.5260   -1.1180    0.0000 N   0  0  0  0  0  0  0  0  0  0  0  0
    9.3690    4.0760    0.0000 H   0  0  0  0  0  0  0  0  0  0  0  0
   10.9470    1.5250    0.0000 H   0  0  0  0  0  0  0  0  0  0  0  0
    4.6810    2.3390    0.0000 H   0  0  0  0  0  0  0  0  0  0  0  0
    4.2400    0.8710    0.0000 H   0  0  0  0  0  0  0  0  0  0  0  0
    4.8150   -2.0940    0.0000 H   0  0  0  0  0  0  0  0  0  0  0  0
    3.6580   -2.0050    0.0000 H   0  0  0  0  0  0  0  0  0  0  0  0
    3.6460    0.2890    0.0000 H   0  0  0  0  0  0  0  0  0  0  0  0
    1.2890    2.4490    0.0000 H   0  0  0  0  0  0  0  0  0  0  0  0
    2.8230    1.5360    0.0000 H   0  0  0  0  0  0  0  0  0  0  0  0
   -1.4240    1.6840    0.0000 H   0  0  0  0  0  0  0  0  0  0  0  0
    0.3130    2.5220    0.0000 H   0  0  0  0  0  0  0  0  0  0  0  0
   -1.8400    0.9980    0.0000 H   0  0  0  0  0  0  0  0  0  0  0  0
   -0.1000   -3.0150    0.0000 H   0  0  0  0  0  0  0  0  0  0  0  0
   -1.6330   -2.1030    0.0000 H   0  0  0  0  0  0  0  0  0  0  0  0
    2.5280   -2.4130    0.0000 H   0  0  0  0  0  0  0  0  0  0  0  0
    0.8770   -3.0880    0.0000 H   0  0  0  0  0  0  0  0  0  0  0  0
   -2.1520   -2.5470    0.0000 H   0  0  0  0  0  0  0  0  0  0  0  0
   -3.0410    1.0010    0.0000 H   0  0  0  0  0  0  0  0  0  0  0  0
   -4.1030   -1.7990    0.0000 H   0  0  0  0  0  0  0  0  0  0  0  0
   -5.9210   -2.1840    0.0000 H   0  0  0  0  0  0  0  0  0  0  0  0
   -9.5010   -2.1910    0.0000 H   0  0  0  0  0  0  0  0  0  0  0  0
   -7.5820   -1.9980    0.0000 H   0  0  0  0  0  0  0  0  0  0  0  0
  -11.5200   -0.2230    0.0000 H   0  0  0  0  0  0  0  0  0  0  0  0
  -10.3930   -1.7880    0.0000 H   0  0  0  0  0  0  0  0  0  0  0  0
  -10.8250    2.5090    0.0000 H   0  0  0  0  0  0  0  0  0  0  0  0
  -11.6170    0.7510    0.0000 H   0  0  0  0  0  0  0  0  0  0  0  0
   -6.5210    3.7860    0.0000 H   0  0  0  0  0  0  0  0  0  0  0  0
    9.6050   -3.7150    0.0000 H   0  0  0  0  0  0  0  0  0  0  0  0
  1  2  2  0  0  0  0
  2  3  1  0  0  0  0
  2  7  1  0  0  0  0
  3  4  2  0  0  0  0
  3 34  1  0  0  0  0
  4  5  1  0  0  0  0
  4 35  1  0  0  0  0
  5  6  2  0  0  0  0
  5 33  1  0  0  0  0
  6  7  1  0  0  0  0
  6 29  1  0  0  0  0
  7  8  1  0  0  0  0
  8  9  1  0  0  0  0
  8 36  1  0  0  0  0
  8 37  1  0  0  0  0
  9 10  1  0  0  0  0
  9 29  1  0  0  0  0
  9 38  1  1  0  0  0
 10 11  1  0  0  0  0
 10 39  1  0  0  0  0
 10 40  1  0  0  0  0
 11 12  1  0  0  0  0
 11 16  1  0  0  0  0
 12 13  1  0  0  0  0
 12 41  1  0  0  0  0
 12 42  1  0  0  0  0
 13 14  1  0  0  0  0
 13 43  1  0  0  0  0
 13 44  1  0  0  0  0
 14 15  1  0  0  0  0
 14 17  1  0  0  0  0
 14 45  1  6  0  0  0
 15 16  1  0  0  0  0
 15 46  1  0  0  0  0
 15 47  1  0  0  0  0
 16 48  1  0  0  0  0
 16 49  1  0  0  0  0
 17 18  1  0  0  0  0
 17 50  1  0  0  0  0
 18 19  1  0  0  0  0
 18 51  1  0  0  0  0
 18 52  1  0  0  0  0
 19 20  2  0  0  0  0
 19 28  1  0  0  0  0
 20 21  1  0  0  0  0
 20 53  1  0  0  0  0
 21 22  1  0  0  0  0
 21 26  2  0  0  0  0
 22 23  1  0  0  0  0
 22 54  1  0  0  0  0
 22 55  1  0  0  0  0
 23 24  1  0  0  0  0
 23 56  1  0  0  0  0
 23 57  1  0  0  0  0
 24 25  1  0  0  0  0
 24 58  1  0  0  0  0
 24 59  1  0  0  0  0
 25 26  1  0  0  0  0
 26 27  1  0  0  0  0
 27 28  2  0  0  0  0
 27 60  1  0  0  0  0
 29 30  1  0  0  0  0
 30 31  2  0  0  0  0
 30 32  1  0  0  0  0
 32 33  2  0  0  0  0
 32 61  1  0  0  0  0
M  END
$$$$
