2D_structures\o62_MMV1580173_2D.pdb
 OpenBabel02252417213D

 50 52  0  0  0  0  0  0  0  0999 V2000
   -4.8140   -1.9570    0.0000 O   0  0  0  0  0  0  0  0  0  0  0  0
   -3.7950   -0.8560    0.0000 C   0  0  0  0  0  0  0  0  0  0  0  0
   -4.2380    0.5770    0.0000 C   0  0  0  0  0  0  0  0  0  0  0  0
   -5.7010    0.9090    0.0000 O   0  0  0  0  0  0  0  0  0  0  0  0
   -6.1440    2.3420    0.0000 C   0  0  0  0  0  0  0  0  0  0  0  0
   -3.2190    1.6770    0.0000 C   0  0  0  0  0  0  0  0  0  0  0  0
   -1.7560    1.3440    0.0000 C   0  0  0  0  0  0  0  0  0  0  0  0
   -0.7370    2.4450    0.0000 N   0  0  0  0  0  0  0  0  0  0  0  0
    0.7260    2.1120    0.0000 C   0  0  0  0  0  0  0  0  0  0  0  0
    2.1890    1.7790    0.0000 C   0  0  0  0  0  0  0  0  0  0  0  0
    2.6320    0.3460    0.0000 C   0  0  0  0  0  0  0  0  0  0  0  0
    4.0940    0.0140    0.0000 C   0  0  0  0  0  0  0  0  0  0  0  0
    4.5380   -1.4190    0.0000 C   0  0  0  0  0  0  0  0  0  0  0  0
    6.0000   -1.7520    0.0000 N   0  0  0  0  0  0  0  0  0  0  0  0
    7.0200   -0.6520    0.0000 C   0  0  0  0  0  0  0  0  0  0  0  0
    8.4820   -0.9840    0.0000 N   0  0  0  0  0  0  0  0  0  0  0  0
    6.5760    0.7810    0.0000 N   0  0  0  0  0  0  0  0  0  0  0  0
    5.1140    1.1140    0.0000 C   0  0  0  0  0  0  0  0  0  0  0  0
    4.6710    2.5470    0.0000 C   0  0  0  0  0  0  0  0  0  0  0  0
    3.2080    2.8800    0.0000 C   0  0  0  0  0  0  0  0  0  0  0  0
    3.5180   -2.5200    0.0000 N   0  0  0  0  0  0  0  0  0  0  0  0
    1.6120   -0.7540    0.0000 C   0  0  0  0  0  0  0  0  0  0  0  0
   -1.3130   -0.0890    0.0000 C   0  0  0  0  0  0  0  0  0  0  0  0
   -2.3320   -1.1890    0.0000 C   0  0  0  0  0  0  0  0  0  0  0  0
   -1.8890   -2.6220    0.0000 O   0  0  0  0  0  0  0  0  0  0  0  0
   -2.9090   -3.7220    0.0000 C   0  0  0  0  0  0  0  0  0  0  0  0
   -6.2770   -1.6240    0.0000 C   0  0  0  0  0  0  0  0  0  0  0  0
   -6.5870    3.7750    0.0000 H   0  0  0  0  0  0  0  0  0  0  0  0
   -7.5770    1.8990    0.0000 H   0  0  0  0  0  0  0  0  0  0  0  0
   -4.7110    2.7860    0.0000 H   0  0  0  0  0  0  0  0  0  0  0  0
   -3.6620    3.1100    0.0000 H   0  0  0  0  0  0  0  0  0  0  0  0
   -1.1800    3.8780    0.0000 H   0  0  0  0  0  0  0  0  0  0  0  0
    1.0590    3.5750    0.0000 H   0  0  0  0  0  0  0  0  0  0  0  0
    0.2170    0.7010    0.0000 H   0  0  0  0  0  0  0  0  0  0  0  0
    8.9260   -2.4170    0.0000 H   0  0  0  0  0  0  0  0  0  0  0  0
    9.5020    0.1160    0.0000 H   0  0  0  0  0  0  0  0  0  0  0  0
    5.6900    3.6470    0.0000 H   0  0  0  0  0  0  0  0  0  0  0  0
    2.7650    4.3130    0.0000 H   0  0  0  0  0  0  0  0  0  0  0  0
    2.7680   -2.2490    0.0000 H   0  0  0  0  0  0  0  0  0  0  0  0
    3.9610   -3.9530    0.0000 H   0  0  0  0  0  0  0  0  0  0  0  0
    0.5930   -1.8540    0.0000 H   0  0  0  0  0  0  0  0  0  0  0  0
    2.3310   -1.2720    0.0000 H   0  0  0  0  0  0  0  0  0  0  0  0
    0.5120    0.2650    0.0000 H   0  0  0  0  0  0  0  0  0  0  0  0
    0.1790   -0.2410    0.0000 H   0  0  0  0  0  0  0  0  0  0  0  0
   -3.9280   -4.8230    0.0000 H   0  0  0  0  0  0  0  0  0  0  0  0
   -1.8080   -4.7420    0.0000 H   0  0  0  0  0  0  0  0  0  0  0  0
   -4.0090   -2.7030    0.0000 H   0  0  0  0  0  0  0  0  0  0  0  0
   -7.7400   -1.2910    0.0000 H   0  0  0  0  0  0  0  0  0  0  0  0
   -6.6100   -3.0870    0.0000 H   0  0  0  0  0  0  0  0  0  0  0  0
   -5.9440   -0.1610    0.0000 H   0  0  0  0  0  0  0  0  0  0  0  0
  1  2  1  0  0  0  0
  1 27  1  0  0  0  0
  2  3  2  0  0  0  0
  2 24  1  0  0  0  0
  3  4  1  0  0  0  0
  3  6  1  0  0  0  0
  4  5  1  0  0  0  0
  5 28  1  0  0  0  0
  5 29  1  0  0  0  0
  5 30  1  0  0  0  0
  6  7  2  0  0  0  0
  6 31  1  0  0  0  0
  7  8  1  0  0  0  0
  7 23  1  0  0  0  0
  8  9  1  0  0  0  0
  8 32  1  0  0  0  0
  9 10  1  0  0  0  0
  9 33  1  0  0  0  0
  9 34  1  0  0  0  0
 10 11  2  0  0  0  0
 10 20  1  0  0  0  0
 11 12  1  0  0  0  0
 11 22  1  0  0  0  0
 12 13  2  0  0  0  0
 12 18  1  0  0  0  0
 13 14  1  0  0  0  0
 13 21  1  0  0  0  0
 14 15  2  0  0  0  0
 15 16  1  0  0  0  0
 15 17  1  0  0  0  0
 16 35  1  0  0  0  0
 16 36  1  0  0  0  0
 17 18  2  0  0  0  0
 18 19  1  0  0  0  0
 19 20  2  0  0  0  0
 19 37  1  0  0  0  0
 20 38  1  0  0  0  0
 21 39  1  0  0  0  0
 21 40  1  0  0  0  0
 22 41  1  0  0  0  0
 22 42  1  0  0  0  0
 22 43  1  0  0  0  0
 23 24  2  0  0  0  0
 23 44  1  0  0  0  0
 24 25  1  0  0  0  0
 25 26  1  0  0  0  0
 26 45  1  0  0  0  0
 26 46  1  0  0  0  0
 26 47  1  0  0  0  0
 27 48  1  0  0  0  0
 27 49  1  0  0  0  0
 27 50  1  0  0  0  0
M  END
$$$$
