2D_structures\o63_MMV1634403_2D.pdb
 OpenBabel02252417213D

 76 79  0  0  0  0  0  0  0  0999 V2000
    3.4680    3.7000    0.0000 O   0  0  0  0  0  0  0  0  0  0  0  0
    2.2860    2.7770    0.0000 C   0  0  0  0  0  0  0  0  0  0  0  0
    0.8960    3.3380    0.0000 N   0  0  0  0  0  0  0  0  0  0  0  0
   -0.2860    2.4150    0.0000 C   0  0  0  0  0  0  0  0  0  0  0  0
   -1.6770    2.9770    0.0000 O   0  0  0  0  0  0  0  0  0  0  0  0
   -0.0780    0.9300    0.0000 C   0  0  0  0  0  0  0  0  0  0  0  0
    1.3130    0.3680    0.0000 C   0  0  0  0  0  0  0  0  0  0  0  0
    2.4950    1.2910    0.0000 N   0  0  0  0  0  0  0  0  0  0  0  0
    3.8860    0.7290    0.0000 C   0  0  0  0  0  0  0  0  0  0  0  0
    5.2770    0.1680    0.0000 C   0  0  0  0  0  0  0  0  0  0  0  0
    6.6680   -0.3940    0.0000 C   0  0  0  0  0  0  0  0  0  0  0  0
    6.8760   -1.8800    0.0000 C   0  0  0  0  0  0  0  0  0  0  0  0
    8.2670   -2.4420    0.0000 C   0  0  0  0  0  0  0  0  0  0  0  0
    9.4490   -1.5180    0.0000 C   0  0  0  0  0  0  0  0  0  0  0  0
   10.8400   -2.0800    0.0000 N   0  0  0  0  0  0  0  0  0  0  0  0
    9.2400   -0.0330    0.0000 C   0  0  0  0  0  0  0  0  0  0  0  0
    7.8500    0.5290    0.0000 C   0  0  0  0  0  0  0  0  0  0  0  0
    1.2090   -1.1290    0.0000 N   0  0  0  0  0  0  0  0  0  0  0  0
   -0.2470   -1.4920    0.0000 C   0  0  0  0  0  0  0  0  0  0  0  0
   -0.8090   -2.8820    0.0000 C   0  0  0  0  0  0  0  0  0  0  0  0
   -1.3710   -4.2730    0.0000 C   0  0  0  0  0  0  0  0  0  0  0  0
   -2.8560   -4.4820    0.0000 C   0  0  0  0  0  0  0  0  0  0  0  0
   -3.4180   -5.8730    0.0000 C   0  0  0  0  0  0  0  0  0  0  0  0
   -2.4940   -7.0550    0.0000 C   0  0  0  0  0  0  0  0  0  0  0  0
   -1.0090   -6.8460    0.0000 C   0  0  0  0  0  0  0  0  0  0  0  0
   -0.4470   -5.4550    0.0000 C   0  0  0  0  0  0  0  0  0  0  0  0
   -1.0420   -0.2200    0.0000 N   0  0  0  0  0  0  0  0  0  0  0  0
   -2.5380   -0.1150    0.0000 C   0  0  0  0  0  0  0  0  0  0  0  0
   -4.0340   -0.0100    0.0000 C   0  0  0  0  0  0  0  0  0  0  0  0
   -5.5310    0.0940    0.0000 N   0  0  0  0  0  0  0  0  0  0  0  0
   -6.1880    1.4420    0.0000 C   0  0  0  0  0  0  0  0  0  0  0  0
   -6.8460    2.7910    0.0000 C   0  0  0  0  0  0  0  0  0  0  0  0
   -7.5040    4.1390    0.0000 O   0  0  0  0  0  0  0  0  0  0  0  0
   -6.3700   -1.1490    0.0000 C   0  0  0  0  0  0  0  0  0  0  0  0
   -7.2080   -2.3930    0.0000 C   0  0  0  0  0  0  0  0  0  0  0  0
    0.6870    4.8240    0.0000 C   0  0  0  0  0  0  0  0  0  0  0  0
    0.4780    6.3090    0.0000 C   0  0  0  0  0  0  0  0  0  0  0  0
    0.2690    7.7950    0.0000 C   0  0  0  0  0  0  0  0  0  0  0  0
    4.4480    2.1200    0.0000 H   0  0  0  0  0  0  0  0  0  0  0  0
    3.3240   -0.6610    0.0000 H   0  0  0  0  0  0  0  0  0  0  0  0
    4.7150   -1.2230    0.0000 H   0  0  0  0  0  0  0  0  0  0  0  0
    5.8390    1.5580    0.0000 H   0  0  0  0  0  0  0  0  0  0  0  0
    5.6940   -2.8030    0.0000 H   0  0  0  0  0  0  0  0  0  0  0  0
    8.4760   -3.9270    0.0000 H   0  0  0  0  0  0  0  0  0  0  0  0
   12.0220   -1.1560    0.0000 H   0  0  0  0  0  0  0  0  0  0  0  0
   11.0490   -3.5650    0.0000 H   0  0  0  0  0  0  0  0  0  0  0  0
   10.4220    0.8910    0.0000 H   0  0  0  0  0  0  0  0  0  0  0  0
    7.6410    2.0150    0.0000 H   0  0  0  0  0  0  0  0  0  0  0  0
   -2.2580   -2.4940    0.0000 H   0  0  0  0  0  0  0  0  0  0  0  0
    0.5820   -3.4440    0.0000 H   0  0  0  0  0  0  0  0  0  0  0  0
   -3.7790   -3.3000    0.0000 H   0  0  0  0  0  0  0  0  0  0  0  0
   -4.9030   -6.0820    0.0000 H   0  0  0  0  0  0  0  0  0  0  0  0
   -3.0560   -8.4460    0.0000 H   0  0  0  0  0  0  0  0  0  0  0  0
   -0.0850   -8.0280    0.0000 H   0  0  0  0  0  0  0  0  0  0  0  0
    1.0380   -5.2460    0.0000 H   0  0  0  0  0  0  0  0  0  0  0  0
   -2.8240   -1.5870    0.0000 H   0  0  0  0  0  0  0  0  0  0  0  0
   -2.4340    1.3810    0.0000 H   0  0  0  0  0  0  0  0  0  0  0  0
   -4.1390   -1.5070    0.0000 H   0  0  0  0  0  0  0  0  0  0  0  0
   -3.9300    1.4860    0.0000 H   0  0  0  0  0  0  0  0  0  0  0  0
   -4.8400    2.1000    0.0000 H   0  0  0  0  0  0  0  0  0  0  0  0
   -7.5370    0.7850    0.0000 H   0  0  0  0  0  0  0  0  0  0  0  0
   -8.1940    2.1330    0.0000 H   0  0  0  0  0  0  0  0  0  0  0  0
   -5.4980    3.4480    0.0000 H   0  0  0  0  0  0  0  0  0  0  0  0
   -9.0000    4.2430    0.0000 H   0  0  0  0  0  0  0  0  0  0  0  0
   -5.1260   -1.9880    0.0000 H   0  0  0  0  0  0  0  0  0  0  0  0
   -7.6130   -0.3110    0.0000 H   0  0  0  0  0  0  0  0  0  0  0  0
   -8.0470   -3.6370    0.0000 H   0  0  0  0  0  0  0  0  0  0  0  0
   -5.9650   -3.2320    0.0000 H   0  0  0  0  0  0  0  0  0  0  0  0
   -8.4520   -1.5540    0.0000 H   0  0  0  0  0  0  0  0  0  0  0  0
   -0.7990    4.6150    0.0000 H   0  0  0  0  0  0  0  0  0  0  0  0
    2.1720    5.0330    0.0000 H   0  0  0  0  0  0  0  0  0  0  0  0
   -1.0070    6.1000    0.0000 H   0  0  0  0  0  0  0  0  0  0  0  0
    1.9630    6.5180    0.0000 H   0  0  0  0  0  0  0  0  0  0  0  0
    0.0600    9.2800    0.0000 H   0  0  0  0  0  0  0  0  0  0  0  0
    1.7550    8.0030    0.0000 H   0  0  0  0  0  0  0  0  0  0  0  0
   -1.2160    7.5860    0.0000 H   0  0  0  0  0  0  0  0  0  0  0  0
  1  2  2  0  0  0  0
  2  3  1  0  0  0  0
  2  8  1  0  0  0  0
  3  4  1  0  0  0  0
  3 36  1  0  0  0  0
  4  5  2  0  0  0  0
  4  6  1  0  0  0  0
  6  7  2  0  0  0  0
  6 27  1  0  0  0  0
  7  8  1  0  0  0  0
  7 18  1  0  0  0  0
  8  9  1  0  0  0  0
  9 10  1  0  0  0  0
  9 39  1  0  0  0  0
  9 40  1  0  0  0  0
 10 11  1  0  0  0  0
 10 41  1  0  0  0  0
 10 42  1  0  0  0  0
 11 12  2  0  0  0  0
 11 17  1  0  0  0  0
 12 13  1  0  0  0  0
 12 43  1  0  0  0  0
 13 14  2  0  0  0  0
 13 44  1  0  0  0  0
 14 15  1  0  0  0  0
 14 16  1  0  0  0  0
 15 45  1  0  0  0  0
 15 46  1  0  0  0  0
 16 17  2  0  0  0  0
 16 47  1  0  0  0  0
 17 48  1  0  0  0  0
 18 19  2  0  0  0  0
 19 20  1  0  0  0  0
 19 27  1  0  0  0  0
 20 21  1  0  0  0  0
 20 49  1  0  0  0  0
 20 50  1  0  0  0  0
 21 22  2  0  0  0  0
 21 26  1  0  0  0  0
 22 23  1  0  0  0  0
 22 51  1  0  0  0  0
 23 24  2  0  0  0  0
 23 52  1  0  0  0  0
 24 25  1  0  0  0  0
 24 53  1  0  0  0  0
 25 26  2  0  0  0  0
 25 54  1  0  0  0  0
 26 55  1  0  0  0  0
 27 28  1  0  0  0  0
 28 29  1  0  0  0  0
 28 56  1  0  0  0  0
 28 57  1  0  0  0  0
 29 30  1  0  0  0  0
 29 58  1  0  0  0  0
 29 59  1  0  0  0  0
 30 31  1  0  0  0  0
 30 34  1  0  0  0  0
 31 32  1  0  0  0  0
 31 60  1  0  0  0  0
 31 61  1  0  0  0  0
 32 33  1  0  0  0  0
 32 62  1  0  0  0  0
 32 63  1  0  0  0  0
 33 64  1  0  0  0  0
 34 35  1  0  0  0  0
 34 65  1  0  0  0  0
 34 66  1  0  0  0  0
 35 67  1  0  0  0  0
 35 68  1  0  0  0  0
 35 69  1  0  0  0  0
 36 37  1  0  0  0  0
 36 70  1  0  0  0  0
 36 71  1  0  0  0  0
 37 38  1  0  0  0  0
 37 72  1  0  0  0  0
 37 73  1  0  0  0  0
 38 74  1  0  0  0  0
 38 75  1  0  0  0  0
 38 76  1  0  0  0  0
M  END
$$$$
