2D_structures\o64_MMV1634390_2D.pdb
 OpenBabel02252417213D

 52 54  0  0  0  0  0  0  0  0999 V2000
    2.3680    6.7900    0.0000 O   0  0  0  0  0  0  0  0  0  0  0  0
    1.6320    5.4830    0.0000 C   0  0  0  0  0  0  0  0  0  0  0  0
    2.3960    4.1920    0.0000 O   0  0  0  0  0  0  0  0  0  0  0  0
    3.8960    4.2080    0.0000 C   0  0  0  0  0  0  0  0  0  0  0  0
    0.1320    5.4670    0.0000 N   0  0  0  0  0  0  0  0  0  0  0  0
   -0.6040    4.1600    0.0000 C   0  0  0  0  0  0  0  0  0  0  0  0
   -1.3400    2.8530    0.0000 C   0  0  0  0  0  0  0  0  0  0  0  0
   -2.8400    2.8370    0.0000 C   0  0  0  0  0  0  0  0  0  0  0  0
   -3.5760    1.5310    0.0000 C   0  0  0  0  0  0  0  0  0  0  0  0
   -2.8120    0.2400    0.0000 C   0  0  0  0  0  0  0  0  0  0  0  0
   -1.3120    0.2560    0.0000 C   0  0  0  0  0  0  0  0  0  0  0  0
   -0.5480   -1.0350    0.0000 C   0  0  0  0  0  0  0  0  0  0  0  0
    0.9510   -1.0190    0.0000 C   0  0  0  0  0  0  0  0  0  0  0  0
    1.6880    0.2880    0.0000 N   0  0  0  0  0  0  0  0  0  0  0  0
    0.9240    1.5790    0.0000 C   0  0  0  0  0  0  0  0  0  0  0  0
   -0.5760    1.5630    0.0000 C   0  0  0  0  0  0  0  0  0  0  0  0
    1.7150   -2.3100    0.0000 N   0  0  0  0  0  0  0  0  0  0  0  0
    3.2150   -2.2940    0.0000 C   0  0  0  0  0  0  0  0  0  0  0  0
    3.9510   -0.9870    0.0000 O   0  0  0  0  0  0  0  0  0  0  0  0
    3.9790   -3.5850    0.0000 N   0  0  0  0  0  0  0  0  0  0  0  0
    5.4790   -3.5690    0.0000 C   0  0  0  0  0  0  0  0  0  0  0  0
    6.9790   -3.5530    0.0000 C   0  0  0  0  0  0  0  0  0  0  0  0
   -3.5480   -1.0670    0.0000 C   0  0  0  0  0  0  0  0  0  0  0  0
   -5.0480   -1.0830    0.0000 C   0  0  0  0  0  0  0  0  0  0  0  0
   -5.7840   -2.3900    0.0000 C   0  0  0  0  0  0  0  0  0  0  0  0
   -5.0200   -3.6810    0.0000 N   0  0  0  0  0  0  0  0  0  0  0  0
   -3.5210   -3.6650    0.0000 C   0  0  0  0  0  0  0  0  0  0  0  0
   -2.7840   -2.3580    0.0000 C   0  0  0  0  0  0  0  0  0  0  0  0
   -7.2840   -2.4060    0.0000 C   0  0  0  0  0  0  0  0  0  0  0  0
    5.3960    4.2240    0.0000 H   0  0  0  0  0  0  0  0  0  0  0  0
    3.9120    2.7090    0.0000 H   0  0  0  0  0  0  0  0  0  0  0  0
    3.8800    5.7080    0.0000 H   0  0  0  0  0  0  0  0  0  0  0  0
   -0.6320    6.7580    0.0000 H   0  0  0  0  0  0  0  0  0  0  0  0
   -1.9110    4.8970    0.0000 H   0  0  0  0  0  0  0  0  0  0  0  0
    0.7030    3.4240    0.0000 H   0  0  0  0  0  0  0  0  0  0  0  0
   -3.6040    4.1280    0.0000 H   0  0  0  0  0  0  0  0  0  0  0  0
   -5.0760    1.5150    0.0000 H   0  0  0  0  0  0  0  0  0  0  0  0
   -0.9230   -1.9450    0.0000 H   0  0  0  0  0  0  0  0  0  0  0  0
    1.6600    2.8850    0.0000 H   0  0  0  0  0  0  0  0  0  0  0  0
    0.9790   -3.6170    0.0000 H   0  0  0  0  0  0  0  0  0  0  0  0
    3.2430   -4.8920    0.0000 H   0  0  0  0  0  0  0  0  0  0  0  0
    5.4630   -2.0690    0.0000 H   0  0  0  0  0  0  0  0  0  0  0  0
    5.4950   -5.0690    0.0000 H   0  0  0  0  0  0  0  0  0  0  0  0
    8.4790   -3.5370    0.0000 H   0  0  0  0  0  0  0  0  0  0  0  0
    6.9630   -2.0530    0.0000 H   0  0  0  0  0  0  0  0  0  0  0  0
    6.9950   -5.0530    0.0000 H   0  0  0  0  0  0  0  0  0  0  0  0
   -5.8120    0.2080    0.0000 H   0  0  0  0  0  0  0  0  0  0  0  0
   -2.7570   -4.9560    0.0000 H   0  0  0  0  0  0  0  0  0  0  0  0
   -1.8060   -2.4680    0.0000 H   0  0  0  0  0  0  0  0  0  0  0  0
   -8.7840   -2.4220    0.0000 H   0  0  0  0  0  0  0  0  0  0  0  0
   -7.2680   -3.9060    0.0000 H   0  0  0  0  0  0  0  0  0  0  0  0
   -7.3000   -0.9060    0.0000 H   0  0  0  0  0  0  0  0  0  0  0  0
  1  2  2  0  0  0  0
  2  3  1  0  0  0  0
  2  5  1  0  0  0  0
  3  4  1  0  0  0  0
  4 30  1  0  0  0  0
  4 31  1  0  0  0  0
  4 32  1  0  0  0  0
  5  6  1  0  0  0  0
  5 33  1  0  0  0  0
  6  7  1  0  0  0  0
  6 34  1  0  0  0  0
  6 35  1  0  0  0  0
  7  8  2  0  0  0  0
  7 16  1  0  0  0  0
  8  9  1  0  0  0  0
  8 36  1  0  0  0  0
  9 10  2  0  0  0  0
  9 37  1  0  0  0  0
 10 11  1  0  0  0  0
 10 23  1  0  0  0  0
 11 12  2  0  0  0  0
 11 16  1  0  0  0  0
 12 13  1  0  0  0  0
 12 38  1  0  0  0  0
 13 14  2  0  0  0  0
 13 17  1  0  0  0  0
 14 15  1  0  0  0  0
 15 16  2  0  0  0  0
 15 39  1  0  0  0  0
 17 18  1  0  0  0  0
 17 40  1  0  0  0  0
 18 19  2  0  0  0  0
 18 20  1  0  0  0  0
 20 21  1  0  0  0  0
 20 41  1  0  0  0  0
 21 22  1  0  0  0  0
 21 42  1  0  0  0  0
 21 43  1  0  0  0  0
 22 44  1  0  0  0  0
 22 45  1  0  0  0  0
 22 46  1  0  0  0  0
 23 24  2  0  0  0  0
 23 28  1  0  0  0  0
 24 25  1  0  0  0  0
 24 47  1  0  0  0  0
 25 26  2  0  0  0  0
 25 29  1  0  0  0  0
 26 27  1  0  0  0  0
 27 28  2  0  0  0  0
 27 48  1  0  0  0  0
 28 49  1  0  0  0  0
 29 50  1  0  0  0  0
 29 51  1  0  0  0  0
 29 52  1  0  0  0  0
M  END
$$$$
