2D_structures\o65_MMV1633967_2D.pdb
 OpenBabel02252417213D

 81 84  0  0  1  0  0  0  0  0999 V2000
   -0.7660   -8.1690    0.0000 O   0  0  0  0  0  0  0  0  0  0  0  0
   -0.4790   -6.6970    0.0000 C   0  0  0  0  0  0  0  0  0  0  0  0
   -1.6110   -5.7120    0.0000 O   0  0  0  0  0  0  0  0  0  0  0  0
   -3.0300   -6.2000    0.0000 C   0  0  0  0  0  0  0  0  0  0  0  0
   -4.4480   -6.6880    0.0000 C   0  0  0  0  0  0  0  0  0  0  0  0
    0.9390   -6.2090    0.0000 N   0  0  0  0  0  0  0  0  0  0  0  0
    1.2260   -4.7370    0.0000 C   0  0  0  0  0  0  0  0  0  0  0  0
    2.6440   -4.2490    0.0000 N   0  0  0  0  0  4  0  0  0  0  0  0
    2.9310   -2.7770    0.0000 C   0  0  0  0  0  0  0  0  0  0  0  0
    4.3500   -2.2890    0.0000 N   0  0  0  0  0  0  0  0  0  0  0  0
    4.6370   -0.8160    0.0000 C   0  0  0  0  0  0  0  0  0  0  0  0
    3.5050    0.1680    0.0000 C   0  0  0  0  0  0  0  0  0  0  0  0
    3.7920    1.6400    0.0000 C   0  0  0  0  0  0  0  0  0  0  0  0
    5.2100    2.1280    0.0000 C   0  0  0  0  0  0  0  0  0  0  0  0
    5.4970    3.6000    0.0000 C   0  0  0  0  0  0  0  0  0  0  0  0
    4.3650    4.5850    0.0000 C   0  0  0  0  0  0  0  0  0  0  0  0
    2.9470    4.0970    0.0000 C   0  0  0  0  0  0  0  0  0  0  0  0
    2.6600    2.6250    0.0000 C   0  0  0  0  0  0  0  0  0  0  0  0
    2.0860   -0.3200    0.0000 N   0  0  0  0  0  0  0  0  0  0  0  0
    1.8000   -1.7920    0.0000 C   0  0  0  0  0  0  0  0  0  0  0  0
    0.3810   -2.2800    0.0000 C   0  0  0  0  0  0  0  0  0  0  0  0
    0.0940   -3.7520    0.0000 C   0  0  0  0  0  0  0  0  0  0  0  0
   -0.7510   -1.2950    0.0000 N   0  0  0  0  0  0  0  0  0  0  0  0
   -2.1690   -1.7830    0.0000 C   0  0  1  0  0  0  0  0  0  0  0  0
   -2.6570   -0.3640    0.0000 C   0  0  0  0  0  0  0  0  0  0  0  0
   -3.1450    1.0540    0.0000 C   0  0  1  0  0  0  0  0  0  0  0  0
   -3.6320    2.4730    0.0000 C   0  0  0  0  0  0  0  0  0  0  0  0
   -4.1200    3.8910    0.0000 N   0  0  0  0  0  0  0  0  0  0  0  0
   -3.1350    5.0230    0.0000 C   0  0  0  0  0  0  0  0  0  0  0  0
   -2.1510    6.1540    0.0000 C   0  0  0  0  0  0  0  0  0  0  0  0
   -5.5920    4.1780    0.0000 C   0  0  0  0  0  0  0  0  0  0  0  0
   -7.0650    4.4650    0.0000 C   0  0  0  0  0  0  0  0  0  0  0  0
   -4.5630    0.5660    0.0000 C   0  0  0  0  0  0  0  0  0  0  0  0
   -1.6810   -3.2010    0.0000 C   0  0  0  0  0  0  0  0  0  0  0  0
    6.0550   -0.3290    0.0000 C   0  0  0  0  0  0  0  0  0  0  0  0
    6.3420    1.1440    0.0000 C   0  0  0  0  0  0  0  0  0  0  0  0
    7.7600    1.6310    0.0000 C   0  0  0  0  0  0  0  0  0  0  0  0
    8.8920    0.6470    0.0000 C   0  0  0  0  0  0  0  0  0  0  0  0
    8.6050   -0.8260    0.0000 C   0  0  0  0  0  0  0  0  0  0  0  0
    7.1870   -1.3130    0.0000 C   0  0  0  0  0  0  0  0  0  0  0  0
   -2.5420   -7.6180    0.0000 H   0  0  0  0  0  0  0  0  0  0  0  0
   -3.5170   -4.7810    0.0000 H   0  0  0  0  0  0  0  0  0  0  0  0
   -5.8660   -7.1750    0.0000 H   0  0  0  0  0  0  0  0  0  0  0  0
   -3.9600   -8.1060    0.0000 H   0  0  0  0  0  0  0  0  0  0  0  0
   -4.9360   -5.2690    0.0000 H   0  0  0  0  0  0  0  0  0  0  0  0
    2.0710   -7.1940    0.0000 H   0  0  0  0  0  0  0  0  0  0  0  0
    5.9200    1.7660    0.0000 H   0  0  0  0  0  0  0  0  0  0  0  0
    6.9160    4.0880    0.0000 H   0  0  0  0  0  0  0  0  0  0  0  0
    4.6520    6.0570    0.0000 H   0  0  0  0  0  0  0  0  0  0  0  0
    1.8150    5.0820    0.0000 H   0  0  0  0  0  0  0  0  0  0  0  0
    1.2420    2.1370    0.0000 H   0  0  0  0  0  0  0  0  0  0  0  0
   -1.2540   -4.4090    0.0000 H   0  0  0  0  0  0  0  0  0  0  0  0
   -0.2860    0.1310    0.0000 H   0  0  0  0  0  0  0  0  0  0  0  0
   -3.5880   -2.2710    0.0000 H   0  0  0  0  0  0  0  0  0  0  0  0
   -4.0050   -1.0210    0.0000 H   0  0  0  0  0  0  0  0  0  0  0  0
   -1.3080    0.2930    0.0000 H   0  0  0  0  0  0  0  0  0  0  0  0
   -1.7260    1.5420    0.0000 H   0  0  0  0  0  0  0  0  0  0  0  0
   -2.2140    2.9600    0.0000 H   0  0  0  0  0  0  0  0  0  0  0  0
   -5.1000    2.1610    0.0000 H   0  0  0  0  0  0  0  0  0  0  0  0
   -2.0040    4.0380    0.0000 H   0  0  0  0  0  0  0  0  0  0  0  0
   -4.2670    6.0070    0.0000 H   0  0  0  0  0  0  0  0  0  0  0  0
   -1.1660    7.2860    0.0000 H   0  0  0  0  0  0  0  0  0  0  0  0
   -3.2830    7.1390    0.0000 H   0  0  0  0  0  0  0  0  0  0  0  0
   -1.0190    5.1700    0.0000 H   0  0  0  0  0  0  0  0  0  0  0  0
   -5.8790    2.7060    0.0000 H   0  0  0  0  0  0  0  0  0  0  0  0
   -5.3060    5.6500    0.0000 H   0  0  0  0  0  0  0  0  0  0  0  0
   -8.5370    4.7510    0.0000 H   0  0  0  0  0  0  0  0  0  0  0  0
   -6.7780    5.9370    0.0000 H   0  0  0  0  0  0  0  0  0  0  0  0
   -7.3520    2.9920    0.0000 H   0  0  0  0  0  0  0  0  0  0  0  0
   -5.9820    0.0790    0.0000 H   0  0  0  0  0  0  0  0  0  0  0  0
   -5.2200    1.9150    0.0000 H   0  0  0  0  0  0  0  0  0  0  0  0
   -4.2520   -0.9010    0.0000 H   0  0  0  0  0  0  0  0  0  0  0  0
   -1.3700   -4.6690    0.0000 H   0  0  0  0  0  0  0  0  0  0  0  0
   -3.1000   -3.6890    0.0000 H   0  0  0  0  0  0  0  0  0  0  0  0
   -0.1870   -3.0710    0.0000 H   0  0  0  0  0  0  0  0  0  0  0  0
    5.4820    2.3730    0.0000 H   0  0  0  0  0  0  0  0  0  0  0  0
    8.0470    3.1040    0.0000 H   0  0  0  0  0  0  0  0  0  0  0  0
   10.3100    1.1350    0.0000 H   0  0  0  0  0  0  0  0  0  0  0  0
    9.7370   -1.8100    0.0000 H   0  0  0  0  0  0  0  0  0  0  0  0
    6.9000   -2.7860    0.0000 H   0  0  0  0  0  0  0  0  0  0  0  0
    5.0927   -2.9352    0.0000 H   0  0  0  0  0  0  0  0  0  0  0  0
  1  2  2  0  0  0  0
  2  3  1  0  0  0  0
  2  6  1  0  0  0  0
  3  4  1  0  0  0  0
  4  5  1  0  0  0  0
  4 41  1  0  0  0  0
  4 42  1  0  0  0  0
  5 43  1  0  0  0  0
  5 44  1  0  0  0  0
  5 45  1  0  0  0  0
  6  7  1  0  0  0  0
  6 46  1  0  0  0  0
  7  8  2  0  0  0  0
  7 22  1  0  0  0  0
  8  9  2  0  0  0  0
  9 10  1  0  0  0  0
  9 20  1  0  0  0  0
 10 11  1  0  0  0  0
 10 81  1  0  0  0  0
 11 12  2  0  0  0  0
 11 35  1  0  0  0  0
 12 13  1  0  0  0  0
 12 19  1  0  0  0  0
 13 14  2  0  0  0  0
 13 18  1  0  0  0  0
 14 15  1  0  0  0  0
 14 47  1  0  0  0  0
 15 16  2  0  0  0  0
 15 48  1  0  0  0  0
 16 17  1  0  0  0  0
 16 49  1  0  0  0  0
 17 18  2  0  0  0  0
 17 50  1  0  0  0  0
 18 51  1  0  0  0  0
 19 20  2  0  0  0  0
 20 21  1  0  0  0  0
 21 22  2  0  0  0  0
 21 23  1  0  0  0  0
 22 52  1  0  0  0  0
 23 24  1  0  0  0  0
 23 53  1  0  0  0  0
 24 25  1  0  0  0  0
 24 34  1  0  0  0  0
 24 54  1  1  0  0  0
 25 26  1  0  0  0  0
 25 55  1  0  0  0  0
 25 56  1  0  0  0  0
 26 27  1  0  0  0  0
 26 33  1  0  0  0  0
 26 57  1  1  0  0  0
 27 28  1  0  0  0  0
 27 58  1  0  0  0  0
 27 59  1  0  0  0  0
 28 29  1  0  0  0  0
 28 31  1  0  0  0  0
 29 30  1  0  0  0  0
 29 60  1  0  0  0  0
 29 61  1  0  0  0  0
 30 62  1  0  0  0  0
 30 63  1  0  0  0  0
 30 64  1  0  0  0  0
 31 32  1  0  0  0  0
 31 65  1  0  0  0  0
 31 66  1  0  0  0  0
 32 67  1  0  0  0  0
 32 68  1  0  0  0  0
 32 69  1  0  0  0  0
 33 70  1  0  0  0  0
 33 71  1  0  0  0  0
 33 72  1  0  0  0  0
 34 73  1  0  0  0  0
 34 74  1  0  0  0  0
 34 75  1  0  0  0  0
 35 36  2  0  0  0  0
 35 40  1  0  0  0  0
 36 37  1  0  0  0  0
 36 76  1  0  0  0  0
 37 38  2  0  0  0  0
 37 77  1  0  0  0  0
 38 39  1  0  0  0  0
 38 78  1  0  0  0  0
 39 40  2  0  0  0  0
 39 79  1  0  0  0  0
 40 80  1  0  0  0  0
M  END
$$$$
