2D_structures\o66_MMV1593534_2D.pdb
 OpenBabel02252417213D

 45 47  0  0  0  0  0  0  0  0999 V2000
   -7.6540    0.2230    0.0000 C   0  0  0  0  0  0  0  0  0  0  0  0
   -6.5430   -0.7850    0.0000 C   0  0  0  0  0  0  0  0  0  0  0  0
   -5.4320   -1.7920    0.0000 N   0  0  0  0  0  0  0  0  0  0  0  0
   -4.0040   -1.3340    0.0000 C   0  0  0  0  0  0  0  0  0  0  0  0
   -3.6860    0.1320    0.0000 O   0  0  0  0  0  0  0  0  0  0  0  0
   -2.8930   -2.3420    0.0000 N   0  0  0  0  0  0  0  0  0  0  0  0
   -1.4640   -1.8840    0.0000 C   0  0  0  0  0  0  0  0  0  0  0  0
   -1.1470   -0.4180    0.0000 C   0  0  0  0  0  0  0  0  0  0  0  0
    0.2820    0.0400    0.0000 C   0  0  0  0  0  0  0  0  0  0  0  0
    0.5990    1.5060    0.0000 C   0  0  0  0  0  0  0  0  0  0  0  0
   -0.5120    2.5140    0.0000 C   0  0  0  0  0  0  0  0  0  0  0  0
   -0.1940    3.9800    0.0000 C   0  0  0  0  0  0  0  0  0  0  0  0
    1.2340    4.4380    0.0000 C   0  0  0  0  0  0  0  0  0  0  0  0
    2.3450    3.4300    0.0000 C   0  0  0  0  0  0  0  0  0  0  0  0
    2.0270    1.9640    0.0000 C   0  0  0  0  0  0  0  0  0  0  0  0
    1.3920   -0.9680    0.0000 C   0  0  0  0  0  0  0  0  0  0  0  0
    1.0750   -2.4340    0.0000 C   0  0  0  0  0  0  0  0  0  0  0  0
   -0.3530   -2.8920    0.0000 N   0  0  0  0  0  0  0  0  0  0  0  0
    2.8210   -0.5100    0.0000 C   0  0  0  0  0  0  0  0  0  0  0  0
    3.1380    0.9560    0.0000 C   0  0  0  0  0  0  0  0  0  0  0  0
    4.5670    1.4140    0.0000 N   0  0  0  0  0  0  0  0  0  0  0  0
    5.6770    0.4060    0.0000 C   0  0  0  0  0  0  0  0  0  0  0  0
    5.3600   -1.0600    0.0000 C   0  0  0  0  0  0  0  0  0  0  0  0
    3.9320   -1.5180    0.0000 C   0  0  0  0  0  0  0  0  0  0  0  0
    6.4710   -2.0680    0.0000 C   0  0  0  0  0  0  0  0  0  0  0  0
    7.8990   -1.6100    0.0000 O   0  0  0  0  0  0  0  0  0  0  0  0
    6.1530   -3.5340    0.0000 O   0  0  0  0  0  0  0  0  0  0  0  0
   -8.7640    1.2310    0.0000 H   0  0  0  0  0  0  0  0  0  0  0  0
   -6.6460    1.3340    0.0000 H   0  0  0  0  0  0  0  0  0  0  0  0
   -8.6620   -0.8870    0.0000 H   0  0  0  0  0  0  0  0  0  0  0  0
   -5.5350    0.3260    0.0000 H   0  0  0  0  0  0  0  0  0  0  0  0
   -7.5510   -1.8950    0.0000 H   0  0  0  0  0  0  0  0  0  0  0  0
   -5.7490   -3.2590    0.0000 H   0  0  0  0  0  0  0  0  0  0  0  0
   -3.2100   -3.8080    0.0000 H   0  0  0  0  0  0  0  0  0  0  0  0
   -2.2580    0.5900    0.0000 H   0  0  0  0  0  0  0  0  0  0  0  0
   -1.9400    2.0560    0.0000 H   0  0  0  0  0  0  0  0  0  0  0  0
   -1.3050    4.9880    0.0000 H   0  0  0  0  0  0  0  0  0  0  0  0
    1.5520    5.9040    0.0000 H   0  0  0  0  0  0  0  0  0  0  0  0
    3.7730    3.8880    0.0000 H   0  0  0  0  0  0  0  0  0  0  0  0
    2.7300    1.5870    0.0000 H   0  0  0  0  0  0  0  0  0  0  0  0
    2.1860   -3.4420    0.0000 H   0  0  0  0  0  0  0  0  0  0  0  0
    2.3040    2.2030    0.0000 H   0  0  0  0  0  0  0  0  0  0  0  0
    7.1060    0.8640    0.0000 H   0  0  0  0  0  0  0  0  0  0  0  0
    3.6140   -2.9840    0.0000 H   0  0  0  0  0  0  0  0  0  0  0  0
    7.2640   -4.5420    0.0000 H   0  0  0  0  0  0  0  0  0  0  0  0
  1  2  1  0  0  0  0
  1 28  1  0  0  0  0
  1 29  1  0  0  0  0
  1 30  1  0  0  0  0
  2  3  1  0  0  0  0
  2 31  1  0  0  0  0
  2 32  1  0  0  0  0
  3  4  1  0  0  0  0
  3 33  1  0  0  0  0
  4  5  2  0  0  0  0
  4  6  1  0  0  0  0
  6  7  1  0  0  0  0
  6 34  1  0  0  0  0
  7  8  2  0  0  0  0
  7 18  1  0  0  0  0
  8  9  1  0  0  0  0
  8 35  1  0  0  0  0
  9 10  1  0  0  0  0
  9 16  2  0  0  0  0
 10 11  2  0  0  0  0
 10 15  1  0  0  0  0
 11 12  1  0  0  0  0
 11 36  1  0  0  0  0
 12 13  2  0  0  0  0
 12 37  1  0  0  0  0
 13 14  1  0  0  0  0
 13 38  1  0  0  0  0
 14 15  2  0  0  0  0
 14 39  1  0  0  0  0
 15 40  1  0  0  0  0
 16 17  1  0  0  0  0
 16 19  1  0  0  0  0
 17 18  2  0  0  0  0
 17 41  1  0  0  0  0
 19 20  2  0  0  0  0
 19 24  1  0  0  0  0
 20 21  1  0  0  0  0
 20 42  1  0  0  0  0
 21 22  2  0  0  0  0
 22 23  1  0  0  0  0
 22 43  1  0  0  0  0
 23 24  2  0  0  0  0
 23 25  1  0  0  0  0
 24 44  1  0  0  0  0
 25 26  2  0  0  0  0
 25 27  1  0  0  0  0
 27 45  1  0  0  0  0
M  END
$$$$
