2D_structures\o67_MMV1582498_2D.pdb
 OpenBabel02252417213D

 43 46  0  0  0  0  0  0  0  0999 V2000
    0.2590    4.0120    0.0000 C   0  0  0  0  0  0  0  0  0  0  0  0
    0.9350    2.6730    0.0000 C   0  0  0  0  0  0  0  0  0  0  0  0
    2.4330    2.5890    0.0000 C   0  0  0  0  0  0  0  0  0  0  0  0
    3.1090    1.2500    0.0000 C   0  0  0  0  0  0  0  0  0  0  0  0
    4.6070    1.1660    0.0000 N   0  0  0  0  0  0  0  0  0  0  0  0
    5.2830   -0.1730    0.0000 C   0  0  0  0  0  0  0  0  0  0  0  0
    4.4620   -1.4280    0.0000 C   0  0  0  0  0  0  0  0  0  0  0  0
    5.1380   -2.7670    0.0000 C   0  0  0  0  0  0  0  0  0  0  0  0
    6.6360   -2.8500    0.0000 C   0  0  0  0  0  0  0  0  0  0  0  0
    7.3120   -4.1890    0.0000 F   0  0  0  0  0  0  0  0  0  0  0  0
    7.4570   -1.5950    0.0000 C   0  0  0  0  0  0  0  0  0  0  0  0
    6.7810   -0.2560    0.0000 C   0  0  0  0  0  0  0  0  0  0  0  0
    2.2880   -0.0050    0.0000 N   0  0  0  0  0  4  0  0  0  0  0  0
    0.7900    0.0790    0.0000 C   0  0  0  0  0  0  0  0  0  0  0  0
   -0.0310   -1.1760    0.0000 S   0  0  0  0  0  0  0  0  0  0  0  0
   -1.5290   -1.0930    0.0000 C   0  0  0  0  0  0  0  0  0  0  0  0
   -3.0270   -1.0090    0.0000 C   0  0  0  0  0  0  0  0  0  0  0  0
   -3.9750   -2.1710    0.0000 N   0  0  0  0  0  0  0  0  0  0  0  0
   -5.3730   -1.6290    0.0000 C   0  0  0  0  0  0  0  0  0  0  0  0
   -6.7120   -2.3050    0.0000 C   0  0  0  0  0  0  0  0  0  0  0  0
   -7.9670   -1.4840    0.0000 C   0  0  0  0  0  0  0  0  0  0  0  0
   -7.8830    0.0140    0.0000 C   0  0  0  0  0  0  0  0  0  0  0  0
   -6.5440    0.6900    0.0000 C   0  0  0  0  0  0  0  0  0  0  0  0
   -5.2890   -0.1310    0.0000 C   0  0  0  0  0  0  0  0  0  0  0  0
   -3.8390    0.2520    0.0000 N   0  0  0  0  0  0  0  0  0  0  0  0
    0.1140    1.4180    0.0000 N   0  0  0  0  0  0  0  0  0  0  0  0
   -0.4170    5.3510    0.0000 H   0  0  0  0  0  0  0  0  0  0  0  0
    1.5980    4.6880    0.0000 H   0  0  0  0  0  0  0  0  0  0  0  0
   -1.0800    3.3350    0.0000 H   0  0  0  0  0  0  0  0  0  0  0  0
    3.2540    3.8440    0.0000 H   0  0  0  0  0  0  0  0  0  0  0  0
    5.4280    2.4210    0.0000 H   0  0  0  0  0  0  0  0  0  0  0  0
    2.9640   -1.3440    0.0000 H   0  0  0  0  0  0  0  0  0  0  0  0
    4.3170   -4.0220    0.0000 H   0  0  0  0  0  0  0  0  0  0  0  0
    8.9550   -1.6790    0.0000 H   0  0  0  0  0  0  0  0  0  0  0  0
    7.6020    0.9990    0.0000 H   0  0  0  0  0  0  0  0  0  0  0  0
   -1.6130   -2.5900    0.0000 H   0  0  0  0  0  0  0  0  0  0  0  0
   -1.4450    0.4050    0.0000 H   0  0  0  0  0  0  0  0  0  0  0  0
   -6.7960   -3.8030    0.0000 H   0  0  0  0  0  0  0  0  0  0  0  0
   -9.3060   -2.1600    0.0000 H   0  0  0  0  0  0  0  0  0  0  0  0
   -9.1380    0.8350    0.0000 H   0  0  0  0  0  0  0  0  0  0  0  0
   -6.4610    2.1880    0.0000 H   0  0  0  0  0  0  0  0  0  0  0  0
   -3.2970    1.6510    0.0000 H   0  0  0  0  0  0  0  0  0  0  0  0
   -0.8690    1.4730    0.0000 H   0  0  0  0  0  0  0  0  0  0  0  0
  1  2  1  0  0  0  0
  1 27  1  0  0  0  0
  1 28  1  0  0  0  0
  1 29  1  0  0  0  0
  2  3  2  0  0  0  0
  2 26  1  0  0  0  0
  3  4  1  0  0  0  0
  3 30  1  0  0  0  0
  4  5  1  0  0  0  0
  4 13  2  0  0  0  0
  5  6  1  0  0  0  0
  5 31  1  0  0  0  0
  6  7  2  0  0  0  0
  6 12  1  0  0  0  0
  7  8  1  0  0  0  0
  7 32  1  0  0  0  0
  8  9  2  0  0  0  0
  8 33  1  0  0  0  0
  9 10  1  0  0  0  0
  9 11  1  0  0  0  0
 11 12  2  0  0  0  0
 11 34  1  0  0  0  0
 12 35  1  0  0  0  0
 13 14  2  0  0  0  0
 14 15  1  0  0  0  0
 14 26  1  0  0  0  0
 15 16  1  0  0  0  0
 16 17  1  0  0  0  0
 16 36  1  0  0  0  0
 16 37  1  0  0  0  0
 17 18  2  0  0  0  0
 17 25  1  0  0  0  0
 18 19  1  0  0  0  0
 19 20  2  0  0  0  0
 19 24  1  0  0  0  0
 20 21  1  0  0  0  0
 20 38  1  0  0  0  0
 21 22  2  0  0  0  0
 21 39  1  0  0  0  0
 22 23  1  0  0  0  0
 22 40  1  0  0  0  0
 23 24  2  0  0  0  0
 23 41  1  0  0  0  0
 24 25  1  0  0  0  0
 25 42  1  0  0  0  0
 26 43  1  0  0  0  0
M  END
$$$$
