2D_structures\o6_MMV1782109_2D.pdb
 OpenBabel02252417213D

 62 66  0  0  1  0  0  0  0  0999 V2000
    1.5710   -0.1850    0.0000 O   0  0  0  0  0  0  0  0  0  0  0  0
    1.1850   -0.8830    0.0000 C   0  0  0  0  0  0  0  0  0  0  0  0
   -0.3070   -0.7280    0.0000 N   0  0  0  0  0  0  0  0  0  0  0  0
   -0.9180    0.6420    0.0000 C   0  0  1  0  0  0  0  0  0  0  0  0
   -2.2880    0.0300    0.0000 C   0  0  0  0  0  0  0  0  0  0  0  0
   -2.4430   -1.4620    0.0000 O   0  0  0  0  0  0  0  0  0  0  0  0
   -3.5030    0.9100    0.0000 N   0  0  0  0  0  0  0  0  0  0  0  0
   -4.8720    0.2990    0.0000 C   0  0  0  0  0  0  0  0  0  0  0  0
   -6.2420   -0.3130    0.0000 C   0  0  0  0  0  0  0  0  0  0  0  0
   -7.6110   -0.9250    0.0000 C   0  0  0  0  0  0  0  0  0  0  0  0
   -8.9110   -0.1770    0.0000 C   0  0  0  0  0  0  0  0  0  0  0  0
  -10.0250   -1.1820    0.0000 N   0  0  0  0  0  0  0  0  0  0  0  0
   -9.4130   -2.5510    0.0000 C   0  0  0  0  0  0  0  0  0  0  0  0
   -7.9210   -2.3930    0.0000 N   0  0  0  0  0  0  0  0  0  0  0  0
    0.4510    1.2540    0.0000 C   0  0  0  0  0  0  0  0  0  0  0  0
    1.8210    1.8650    0.0000 C   0  0  0  0  0  0  0  0  0  0  0  0
    3.0350    0.9850    0.0000 C   0  0  0  0  0  0  0  0  0  0  0  0
    4.4050    1.5970    0.0000 C   0  0  0  0  0  0  0  0  0  0  0  0
    4.5600    3.0890    0.0000 C   0  0  0  0  0  0  0  0  0  0  0  0
    3.3450    3.9690    0.0000 C   0  0  0  0  0  0  0  0  0  0  0  0
    3.5000    5.4610    0.0000 C   0  0  0  0  0  0  0  0  0  0  0  0
    2.2860    6.3410    0.0000 C   0  0  0  0  0  0  0  0  0  0  0  0
    0.9160    5.7300    0.0000 C   0  0  0  0  0  0  0  0  0  0  0  0
    0.7610    4.2380    0.0000 C   0  0  0  0  0  0  0  0  0  0  0  0
    1.9760    3.3570    0.0000 C   0  0  0  0  0  0  0  0  0  0  0  0
    1.7970   -2.2520    0.0000 C   0  0  0  0  0  0  0  0  0  0  0  0
    2.1110   -3.7190    0.0000 C   0  0  0  0  0  0  0  0  0  0  0  0
    3.6030   -3.8740    0.0000 C   0  0  0  0  0  0  0  0  0  0  0  0
    4.2110   -2.5030    0.0000 C   0  0  0  0  0  0  0  0  0  0  0  0
    3.0950   -1.5010    0.0000 C   0  0  0  0  0  0  0  0  0  0  0  0
    5.7030   -2.3440    0.0000 C   0  0  0  0  0  0  0  0  0  0  0  0
    6.5860   -3.5570    0.0000 C   0  0  0  0  0  0  0  0  0  0  0  0
    5.9780   -4.9280    0.0000 C   0  0  0  0  0  0  0  0  0  0  0  0
    4.4860   -5.0870    0.0000 C   0  0  0  0  0  0  0  0  0  0  0  0
   -1.1870   -1.9420    0.0000 H   0  0  0  0  0  0  0  0  0  0  0  0
   -1.5300    2.0110    0.0000 H   0  0  0  0  0  0  0  0  0  0  0  0
   -3.3480    2.4020    0.0000 H   0  0  0  0  0  0  0  0  0  0  0  0
   -4.2600   -1.0710    0.0000 H   0  0  0  0  0  0  0  0  0  0  0  0
   -5.4840    1.6680    0.0000 H   0  0  0  0  0  0  0  0  0  0  0  0
   -6.8530    1.0560    0.0000 H   0  0  0  0  0  0  0  0  0  0  0  0
   -5.6300   -1.6830    0.0000 H   0  0  0  0  0  0  0  0  0  0  0  0
   -9.0700    1.3150    0.0000 H   0  0  0  0  0  0  0  0  0  0  0  0
  -11.4920   -0.8720    0.0000 H   0  0  0  0  0  0  0  0  0  0  0  0
  -10.1610   -3.8510    0.0000 H   0  0  0  0  0  0  0  0  0  0  0  0
    0.9430    0.6260    0.0000 H   0  0  0  0  0  0  0  0  0  0  0  0
   -0.1610    2.6230    0.0000 H   0  0  0  0  0  0  0  0  0  0  0  0
    2.7000   -0.4770    0.0000 H   0  0  0  0  0  0  0  0  0  0  0  0
    5.6200    0.7170    0.0000 H   0  0  0  0  0  0  0  0  0  0  0  0
    5.9300    3.7010    0.0000 H   0  0  0  0  0  0  0  0  0  0  0  0
    4.8700    6.0730    0.0000 H   0  0  0  0  0  0  0  0  0  0  0  0
    2.4410    7.8330    0.0000 H   0  0  0  0  0  0  0  0  0  0  0  0
   -0.2980    6.6100    0.0000 H   0  0  0  0  0  0  0  0  0  0  0  0
   -0.6080    3.6260    0.0000 H   0  0  0  0  0  0  0  0  0  0  0  0
    0.3710   -2.7180    0.0000 H   0  0  0  0  0  0  0  0  0  0  0  0
    0.6190   -3.8780    0.0000 H   0  0  0  0  0  0  0  0  0  0  0  0
    2.1130   -5.2190    0.0000 H   0  0  0  0  0  0  0  0  0  0  0  0
    4.2090   -0.4960    0.0000 H   0  0  0  0  0  0  0  0  0  0  0  0
    2.2120   -0.2880    0.0000 H   0  0  0  0  0  0  0  0  0  0  0  0
    6.3110   -0.9730    0.0000 H   0  0  0  0  0  0  0  0  0  0  0  0
    8.0780   -3.3980    0.0000 H   0  0  0  0  0  0  0  0  0  0  0  0
    6.8610   -6.1400    0.0000 H   0  0  0  0  0  0  0  0  0  0  0  0
    3.8770   -6.4580    0.0000 H   0  0  0  0  0  0  0  0  0  0  0  0
  1  2  2  0  0  0  0
  2  3  1  0  0  0  0
  2 26  1  0  0  0  0
  3  4  1  0  0  0  0
  3 35  1  0  0  0  0
  4  5  1  0  0  0  0
  4 15  1  0  0  0  0
  4 36  1  6  0  0  0
  5  6  2  0  0  0  0
  5  7  1  0  0  0  0
  7  8  1  0  0  0  0
  7 37  1  0  0  0  0
  8  9  1  0  0  0  0
  8 38  1  0  0  0  0
  8 39  1  0  0  0  0
  9 10  1  0  0  0  0
  9 40  1  0  0  0  0
  9 41  1  0  0  0  0
 10 11  2  0  0  0  0
 10 14  1  0  0  0  0
 11 12  1  0  0  0  0
 11 42  1  0  0  0  0
 12 13  1  0  0  0  0
 12 43  1  0  0  0  0
 13 14  2  0  0  0  0
 13 44  1  0  0  0  0
 15 16  1  0  0  0  0
 15 45  1  0  0  0  0
 15 46  1  0  0  0  0
 16 17  2  0  0  0  0
 16 25  1  0  0  0  0
 17 18  1  0  0  0  0
 17 47  1  0  0  0  0
 18 19  2  0  0  0  0
 18 48  1  0  0  0  0
 19 20  1  0  0  0  0
 19 49  1  0  0  0  0
 20 21  2  0  0  0  0
 20 25  1  0  0  0  0
 21 22  1  0  0  0  0
 21 50  1  0  0  0  0
 22 23  2  0  0  0  0
 22 51  1  0  0  0  0
 23 24  1  0  0  0  0
 23 52  1  0  0  0  0
 24 25  2  0  0  0  0
 24 53  1  0  0  0  0
 26 27  1  0  0  0  0
 26 30  1  0  0  0  0
 26 54  1  0  0  0  0
 27 28  1  0  0  0  0
 27 55  1  0  0  0  0
 27 56  1  0  0  0  0
 28 29  2  0  0  0  0
 28 34  1  0  0  0  0
 29 30  1  0  0  0  0
 29 31  1  0  0  0  0
 30 57  1  0  0  0  0
 30 58  1  0  0  0  0
 31 32  2  0  0  0  0
 31 59  1  0  0  0  0
 32 33  1  0  0  0  0
 32 60  1  0  0  0  0
 33 34  2  0  0  0  0
 33 61  1  0  0  0  0
 34 62  1  0  0  0  0
M  END
$$$$
