2D_structures\o70_MMV000043_2D.pdb
 OpenBabel02252417213D

 61 63  0  0  1  0  0  0  0  0999 V2000
    1.9520   -6.1440    0.0000 C   0  0  0  0  0  0  0  0  0  0  0  0
    2.3810   -4.7070    0.0000 O   0  0  0  0  0  0  0  0  0  0  0  0
    1.3520   -3.6170    0.0000 C   0  0  0  0  0  0  0  0  0  0  0  0
   -0.1080   -3.9630    0.0000 C   0  0  0  0  0  0  0  0  0  0  0  0
   -1.1380   -2.8720    0.0000 C   0  0  0  0  0  0  0  0  0  0  0  0
   -2.5970   -3.2190    0.0000 C   0  0  0  0  0  0  0  0  0  0  0  0
   -0.7080   -1.4350    0.0000 C   0  0  0  0  0  0  0  0  0  0  0  0
   -1.7380   -0.3440    0.0000 C   0  0  0  0  0  0  0  0  0  0  0  0
   -3.1970   -0.6910    0.0000 O   0  0  0  0  0  0  0  0  0  0  0  0
   -4.2270    0.4000    0.0000 C   0  0  0  0  0  0  0  0  0  0  0  0
   -3.7970    1.8370    0.0000 C   0  0  0  0  0  0  0  0  0  0  0  0
   -4.8270    2.9280    0.0000 C   0  0  0  0  0  0  0  0  0  0  0  0
   -6.2860    2.5810    0.0000 C   0  0  0  0  0  0  0  0  0  0  0  0
   -6.7160    1.1440    0.0000 C   0  0  0  0  0  0  0  0  0  0  0  0
   -5.6860    0.0530    0.0000 C   0  0  0  0  0  0  0  0  0  0  0  0
   -8.1750    0.7980    0.0000 C   0  0  0  0  0  0  0  0  0  0  0  0
   -9.6350    0.4510    0.0000 F   0  0  0  0  0  0  0  0  0  0  0  0
   -7.8290   -0.6620    0.0000 F   0  0  0  0  0  0  0  0  0  0  0  0
   -8.5220    2.2570    0.0000 F   0  0  0  0  0  0  0  0  0  0  0  0
   -1.3080    1.0930    0.0000 C   0  0  0  0  0  0  0  0  0  0  0  0
   -2.3380    2.1830    0.0000 O   0  0  0  0  0  0  0  0  0  0  0  0
   -1.9080    3.6210    0.0000 C   0  0  0  0  0  0  0  0  0  0  0  0
    0.1520    1.4390    0.0000 C   0  0  0  0  0  0  0  0  0  0  0  0
    1.1810    0.3480    0.0000 C   0  0  0  0  0  0  0  0  0  0  0  0
    2.6410    0.6950    0.0000 N   0  0  0  0  0  0  0  0  0  0  0  0
    3.6710   -0.3960    0.0000 C   0  0  1  0  0  0  0  0  0  0  0  0
    2.5800   -1.4260    0.0000 C   0  0  0  0  0  0  0  0  0  0  0  0
    4.7610    0.6340    0.0000 C   0  0  0  0  0  0  0  0  0  0  0  0
    5.8520    1.6640    0.0000 C   0  0  0  0  0  0  0  0  0  0  0  0
    6.9430    2.6930    0.0000 C   0  0  0  0  0  0  0  0  0  0  0  0
    8.0330    3.7230    0.0000 N   0  0  0  0  0  0  0  0  0  0  0  0
    0.7520   -1.0890    0.0000 C   0  0  0  0  0  0  0  0  0  0  0  0
    1.7810   -2.1790    0.0000 N   0  0  0  0  0  4  0  0  0  0  0  0
    1.5220   -7.5810    0.0000 H   0  0  0  0  0  0  0  0  0  0  0  0
    3.3890   -6.5740    0.0000 H   0  0  0  0  0  0  0  0  0  0  0  0
    0.5150   -5.7150    0.0000 H   0  0  0  0  0  0  0  0  0  0  0  0
   -0.5370   -5.4000    0.0000 H   0  0  0  0  0  0  0  0  0  0  0  0
   -4.0560   -3.5650    0.0000 H   0  0  0  0  0  0  0  0  0  0  0  0
   -2.9430   -1.7590    0.0000 H   0  0  0  0  0  0  0  0  0  0  0  0
   -2.2510   -4.6780    0.0000 H   0  0  0  0  0  0  0  0  0  0  0  0
   -3.0890    2.2030    0.0000 H   0  0  0  0  0  0  0  0  0  0  0  0
   -4.3970    4.3650    0.0000 H   0  0  0  0  0  0  0  0  0  0  0  0
   -7.3160    3.6720    0.0000 H   0  0  0  0  0  0  0  0  0  0  0  0
   -6.1160   -1.3840    0.0000 H   0  0  0  0  0  0  0  0  0  0  0  0
   -1.4780    5.0580    0.0000 H   0  0  0  0  0  0  0  0  0  0  0  0
   -3.3450    4.0500    0.0000 H   0  0  0  0  0  0  0  0  0  0  0  0
   -0.4710    3.1910    0.0000 H   0  0  0  0  0  0  0  0  0  0  0  0
    0.5810    2.8760    0.0000 H   0  0  0  0  0  0  0  0  0  0  0  0
    2.8920    2.1740    0.0000 H   0  0  0  0  0  0  0  0  0  0  0  0
    4.7000   -1.4870    0.0000 H   0  0  0  0  0  0  0  0  0  0  0  0
    1.7710   -2.6890    0.0000 H   0  0  0  0  0  0  0  0  0  0  0  0
    3.6100   -2.5160    0.0000 H   0  0  0  0  0  0  0  0  0  0  0  0
    1.3170   -0.6160    0.0000 H   0  0  0  0  0  0  0  0  0  0  0  0
    5.7910   -0.4570    0.0000 H   0  0  0  0  0  0  0  0  0  0  0  0
    3.8720    1.8420    0.0000 H   0  0  0  0  0  0  0  0  0  0  0  0
    6.8820    0.5730    0.0000 H   0  0  0  0  0  0  0  0  0  0  0  0
    4.8220    2.7540    0.0000 H   0  0  0  0  0  0  0  0  0  0  0  0
    5.9130    3.7840    0.0000 H   0  0  0  0  0  0  0  0  0  0  0  0
    7.9720    1.6030    0.0000 H   0  0  0  0  0  0  0  0  0  0  0  0
    9.4700    3.2930    0.0000 H   0  0  0  0  0  0  0  0  0  0  0  0
    7.6870    5.1830    0.0000 H   0  0  0  0  0  0  0  0  0  0  0  0
  1  2  1  0  0  0  0
  1 34  1  0  0  0  0
  1 35  1  0  0  0  0
  1 36  1  0  0  0  0
  2  3  1  0  0  0  0
  3  4  2  0  0  0  0
  3 33  2  0  0  0  0
  4  5  1  0  0  0  0
  4 37  1  0  0  0  0
  5  6  1  0  0  0  0
  5  7  2  0  0  0  0
  6 38  1  0  0  0  0
  6 39  1  0  0  0  0
  6 40  1  0  0  0  0
  7  8  1  0  0  0  0
  7 32  1  0  0  0  0
  8  9  1  0  0  0  0
  8 20  2  0  0  0  0
  9 10  1  0  0  0  0
 10 11  2  0  0  0  0
 10 15  1  0  0  0  0
 11 12  1  0  0  0  0
 11 41  1  0  0  0  0
 12 13  2  0  0  0  0
 12 42  1  0  0  0  0
 13 14  1  0  0  0  0
 13 43  1  0  0  0  0
 14 15  2  0  0  0  0
 14 16  1  0  0  0  0
 15 44  1  0  0  0  0
 16 17  1  0  0  0  0
 16 18  1  0  0  0  0
 16 19  1  0  0  0  0
 20 21  1  0  0  0  0
 20 23  1  0  0  0  0
 21 22  1  0  0  0  0
 22 45  1  0  0  0  0
 22 46  1  0  0  0  0
 22 47  1  0  0  0  0
 23 24  2  0  0  0  0
 23 48  1  0  0  0  0
 24 25  1  0  0  0  0
 24 32  1  0  0  0  0
 25 26  1  0  0  0  0
 25 49  1  0  0  0  0
 26 27  1  0  0  0  0
 26 28  1  0  0  0  0
 26 50  1  1  0  0  0
 27 51  1  0  0  0  0
 27 52  1  0  0  0  0
 27 53  1  0  0  0  0
 28 29  1  0  0  0  0
 28 54  1  0  0  0  0
 28 55  1  0  0  0  0
 29 30  1  0  0  0  0
 29 56  1  0  0  0  0
 29 57  1  0  0  0  0
 30 31  1  0  0  0  0
 30 58  1  0  0  0  0
 30 59  1  0  0  0  0
 31 60  1  0  0  0  0
 31 61  1  0  0  0  0
 32 33  2  0  0  0  0
M  END
$$$$
