2D_structures\o76_MMV1579878_2D.pdb
 OpenBabel02252417213D

 35 38  0  0  0  0  0  0  0  0999 V2000
    0.6590   -2.6540    0.0000 O   0  0  0  0  0  0  0  0  0  0  0  0
    2.1570   -2.7320    0.0000 C   0  0  0  0  0  0  0  0  0  0  0  0
    2.8390   -4.0680    0.0000 O   0  0  0  0  0  0  0  0  0  0  0  0
    2.9730   -1.4730    0.0000 C   0  0  0  0  0  0  0  0  0  0  0  0
    4.4710   -1.5510    0.0000 C   0  0  0  0  0  0  0  0  0  0  0  0
    5.2880   -0.2930    0.0000 C   0  0  0  0  0  0  0  0  0  0  0  0
    4.6060    1.0430    0.0000 C   0  0  0  0  0  0  0  0  0  0  0  0
    3.1080    1.1210    0.0000 C   0  0  0  0  0  0  0  0  0  0  0  0
    2.2920   -0.1370    0.0000 C   0  0  0  0  0  0  0  0  0  0  0  0
    0.7940   -0.0590    0.0000 S   0  0  0  0  0  0  0  0  0  0  0  0
    0.1120    1.2770    0.0000 C   0  0  0  0  0  0  0  0  0  0  0  0
    0.9290    2.5350    0.0000 N   0  0  0  0  0  4  0  0  0  0  0  0
    0.2470    3.8710    0.0000 C   0  0  0  0  0  0  0  0  0  0  0  0
   -1.2510    3.9490    0.0000 N   0  0  0  0  0  0  0  0  0  0  0  0
   -2.0670    2.6910    0.0000 C   0  0  0  0  0  0  0  0  0  0  0  0
   -3.5490    2.4550    0.0000 S   0  0  0  0  0  0  0  0  0  0  0  0
   -3.7830    0.9740    0.0000 C   0  0  0  0  0  0  0  0  0  0  0  0
   -4.8430   -0.0880    0.0000 C   0  0  0  0  0  0  0  0  0  0  0  0
   -4.1610   -1.4240    0.0000 C   0  0  0  0  0  0  0  0  0  0  0  0
   -2.6800   -1.1880    0.0000 C   0  0  0  0  0  0  0  0  0  0  0  0
   -2.4460    0.2930    0.0000 C   0  0  0  0  0  0  0  0  0  0  0  0
   -1.3860    1.3540    0.0000 C   0  0  0  0  0  0  0  0  0  0  0  0
   -0.1570   -3.9120    0.0000 H   0  0  0  0  0  0  0  0  0  0  0  0
    5.1530   -2.8870    0.0000 H   0  0  0  0  0  0  0  0  0  0  0  0
    6.7860   -0.3710    0.0000 H   0  0  0  0  0  0  0  0  0  0  0  0
    5.4230    2.3020    0.0000 H   0  0  0  0  0  0  0  0  0  0  0  0
    2.4270    2.4570    0.0000 H   0  0  0  0  0  0  0  0  0  0  0  0
    1.0630    5.1300    0.0000 H   0  0  0  0  0  0  0  0  0  0  0  0
   -5.7870    1.0780    0.0000 H   0  0  0  0  0  0  0  0  0  0  0  0
   -6.1000   -0.9050    0.0000 H   0  0  0  0  0  0  0  0  0  0  0  0
   -5.5610   -1.9620    0.0000 H   0  0  0  0  0  0  0  0  0  0  0  0
   -3.7720   -2.8720    0.0000 H   0  0  0  0  0  0  0  0  0  0  0  0
   -2.6010   -2.6860    0.0000 H   0  0  0  0  0  0  0  0  0  0  0  0
   -1.1820   -1.2660    0.0000 H   0  0  0  0  0  0  0  0  0  0  0  0
   -1.6983    4.8260    0.0000 H   0  0  0  0  0  0  0  0  0  0  0  0
  1  2  1  0  0  0  0
  1 23  1  0  0  0  0
  2  3  2  0  0  0  0
  2  4  1  0  0  0  0
  4  5  2  0  0  0  0
  4  9  1  0  0  0  0
  5  6  1  0  0  0  0
  5 24  1  0  0  0  0
  6  7  2  0  0  0  0
  6 25  1  0  0  0  0
  7  8  1  0  0  0  0
  7 26  1  0  0  0  0
  8  9  2  0  0  0  0
  8 27  1  0  0  0  0
  9 10  1  0  0  0  0
 10 11  1  0  0  0  0
 11 12  2  0  0  0  0
 11 22  1  0  0  0  0
 12 13  2  0  0  0  0
 13 14  1  0  0  0  0
 13 28  1  0  0  0  0
 14 15  1  0  0  0  0
 14 35  1  0  0  0  0
 15 16  1  0  0  0  0
 15 22  2  0  0  0  0
 16 17  1  0  0  0  0
 17 18  1  0  0  0  0
 17 21  2  0  0  0  0
 18 19  1  0  0  0  0
 18 29  1  0  0  0  0
 18 30  1  0  0  0  0
 19 20  1  0  0  0  0
 19 31  1  0  0  0  0
 19 32  1  0  0  0  0
 20 21  1  0  0  0  0
 20 33  1  0  0  0  0
 20 34  1  0  0  0  0
 21 22  1  0  0  0  0
M  END
$$$$
