2D_structures\o77_MMV1579845_2D.pdb
 OpenBabel02252417213D

 32 34  0  0  0  0  0  0  0  0999 V2000
   -1.5050    1.6200    0.0000 O   0  0  0  0  0  0  0  0  0  0  0  0
   -2.3180    0.3600    0.0000 C   0  0  0  0  0  0  0  0  0  0  0  0
   -1.6330   -0.9750    0.0000 N   0  0  0  0  0  0  0  0  0  0  0  0
   -0.1350   -1.0490    0.0000 C   0  0  0  0  0  0  0  0  0  0  0  0
    1.3630   -1.1230    0.0000 C   0  0  0  0  0  0  0  0  0  0  0  0
    2.0480   -2.4570    0.0000 C   0  0  0  0  0  0  0  0  0  0  0  0
    3.5460   -2.5310    0.0000 C   0  0  0  0  0  0  0  0  0  0  0  0
    4.3600   -1.2710    0.0000 C   0  0  0  0  0  0  0  0  0  0  0  0
    3.6750    0.0640    0.0000 C   0  0  0  0  0  0  0  0  0  0  0  0
    4.4880    1.3240    0.0000 C   0  0  0  0  0  0  0  0  0  0  0  0
    3.8030    2.6590    0.0000 C   0  0  0  0  0  0  0  0  0  0  0  0
    2.3040    2.7330    0.0000 C   0  0  0  0  0  0  0  0  0  0  0  0
    1.4910    1.4720    0.0000 C   0  0  0  0  0  0  0  0  0  0  0  0
    2.1760    0.1380    0.0000 C   0  0  0  0  0  0  0  0  0  0  0  0
   -3.8160    0.4340    0.0000 C   0  0  0  0  0  0  0  0  0  0  0  0
   -4.7570   -0.7350    0.0000 C   0  0  0  0  0  0  0  0  0  0  0  0
   -6.1590   -0.2020    0.0000 C   0  0  0  0  0  0  0  0  0  0  0  0
   -6.0850    1.2970    0.0000 C   0  0  0  0  0  0  0  0  0  0  0  0
   -4.6370    1.6890    0.0000 S   0  0  0  0  0  0  0  0  0  0  0  0
   -2.4460   -2.2350    0.0000 H   0  0  0  0  0  0  0  0  0  0  0  0
   -0.2090   -2.5470    0.0000 H   0  0  0  0  0  0  0  0  0  0  0  0
   -0.0610    0.4490    0.0000 H   0  0  0  0  0  0  0  0  0  0  0  0
    1.2350   -3.7180    0.0000 H   0  0  0  0  0  0  0  0  0  0  0  0
    4.2310   -3.8660    0.0000 H   0  0  0  0  0  0  0  0  0  0  0  0
    5.8580   -1.3450    0.0000 H   0  0  0  0  0  0  0  0  0  0  0  0
    5.9860    1.2500    0.0000 H   0  0  0  0  0  0  0  0  0  0  0  0
    4.6160    3.9190    0.0000 H   0  0  0  0  0  0  0  0  0  0  0  0
    1.6190    4.0670    0.0000 H   0  0  0  0  0  0  0  0  0  0  0  0
   -0.0070    1.5460    0.0000 H   0  0  0  0  0  0  0  0  0  0  0  0
   -4.3640   -2.1830    0.0000 H   0  0  0  0  0  0  0  0  0  0  0  0
   -7.4140   -1.0220    0.0000 H   0  0  0  0  0  0  0  0  0  0  0  0
   -7.2530    2.2370    0.0000 H   0  0  0  0  0  0  0  0  0  0  0  0
  1  2  2  0  0  0  0
  2  3  1  0  0  0  0
  2 15  1  0  0  0  0
  3  4  1  0  0  0  0
  3 20  1  0  0  0  0
  4  5  1  0  0  0  0
  4 21  1  0  0  0  0
  4 22  1  0  0  0  0
  5  6  2  0  0  0  0
  5 14  1  0  0  0  0
  6  7  1  0  0  0  0
  6 23  1  0  0  0  0
  7  8  2  0  0  0  0
  7 24  1  0  0  0  0
  8  9  1  0  0  0  0
  8 25  1  0  0  0  0
  9 10  2  0  0  0  0
  9 14  1  0  0  0  0
 10 11  1  0  0  0  0
 10 26  1  0  0  0  0
 11 12  2  0  0  0  0
 11 27  1  0  0  0  0
 12 13  1  0  0  0  0
 12 28  1  0  0  0  0
 13 14  2  0  0  0  0
 13 29  1  0  0  0  0
 15 16  2  0  0  0  0
 15 19  1  0  0  0  0
 16 17  1  0  0  0  0
 16 30  1  0  0  0  0
 17 18  2  0  0  0  0
 17 31  1  0  0  0  0
 18 19  1  0  0  0  0
 18 32  1  0  0  0  0
M  END
$$$$
