2D_structures\o79_MMV1579786_2D.pdb
 OpenBabel02252417213D

 36 37  0  0  0  0  0  0  0  0999 V2000
    2.9520   -4.7930    0.0000 N   0  0  0  0  0  0  0  0  0  0  0  0
    2.8100   -3.3000    0.0000 C   0  0  0  0  0  0  0  0  0  0  0  0
    2.6680   -1.8070    0.0000 C   0  0  0  0  0  0  0  0  0  0  0  0
    2.5260   -0.3140    0.0000 C   0  0  0  0  0  0  0  0  0  0  0  0
    2.3830    1.1800    0.0000 C   0  0  0  0  0  0  0  0  0  0  0  0
    1.0190    1.8030    0.0000 C   0  0  0  0  0  0  0  0  0  0  0  0
    0.8770    3.2970    0.0000 C   0  0  0  0  0  0  0  0  0  0  0  0
    2.0990    4.1660    0.0000 C   0  0  0  0  0  0  0  0  0  0  0  0
    3.4640    3.5430    0.0000 C   0  0  0  0  0  0  0  0  0  0  0  0
    3.6060    2.0490    0.0000 C   0  0  0  0  0  0  0  0  0  0  0  0
   -0.2030    0.9340    0.0000 C   0  0  0  0  0  0  0  0  0  0  0  0
   -0.0610   -0.5600    0.0000 O   0  0  0  0  0  0  0  0  0  0  0  0
   -1.5670    1.5570    0.0000 N   0  0  0  0  0  0  0  0  0  0  0  0
   -2.7890    0.6880    0.0000 C   0  0  0  0  0  0  0  0  0  0  0  0
   -2.8040   -0.8120    0.0000 N   0  0  0  0  0  0  0  0  0  0  0  0
   -4.2350   -1.2620    0.0000 C   0  0  0  0  0  0  0  0  0  0  0  0
   -5.1050   -0.0390    0.0000 C   0  0  0  0  0  0  0  0  0  0  0  0
   -4.2110    1.1650    0.0000 S   0  0  0  0  0  0  0  0  0  0  0  0
   -6.6050   -0.0250    0.0000 N   0  3  0  0  0  0  0  0  0  0  0  0
   -7.3680   -1.3160    0.0000 O   0  0  0  0  0  0  0  0  0  0  0  0
   -7.3420    1.2820    0.0000 O   0  0  0  0  0  0  0  0  0  0  0  0
    4.3160   -5.4170    0.0000 H   0  0  0  0  0  0  0  0  0  0  0  0
    1.7290   -5.6630    0.0000 H   0  0  0  0  0  0  0  0  0  0  0  0
    1.3160   -3.4420    0.0000 H   0  0  0  0  0  0  0  0  0  0  0  0
    4.3030   -3.1580    0.0000 H   0  0  0  0  0  0  0  0  0  0  0  0
    1.1740   -1.9490    0.0000 H   0  0  0  0  0  0  0  0  0  0  0  0
    4.1610   -1.6650    0.0000 H   0  0  0  0  0  0  0  0  0  0  0  0
    1.0320   -0.4560    0.0000 H   0  0  0  0  0  0  0  0  0  0  0  0
    4.0190   -0.1720    0.0000 H   0  0  0  0  0  0  0  0  0  0  0  0
   -0.4870    3.9200    0.0000 H   0  0  0  0  0  0  0  0  0  0  0  0
    1.9570    5.6600    0.0000 H   0  0  0  0  0  0  0  0  0  0  0  0
    4.6860    4.4120    0.0000 H   0  0  0  0  0  0  0  0  0  0  0  0
    4.9700    1.4260    0.0000 H   0  0  0  0  0  0  0  0  0  0  0  0
   -1.7090    3.0510    0.0000 H   0  0  0  0  0  0  0  0  0  0  0  0
   -4.7130   -2.6830    0.0000 H   0  0  0  0  0  0  0  0  0  0  0  0
   -8.8680   -1.3010    0.0000 H   0  0  0  0  0  0  0  0  0  0  0  0
  1  2  1  0  0  0  0
  1 22  1  0  0  0  0
  1 23  1  0  0  0  0
  2  3  1  0  0  0  0
  2 24  1  0  0  0  0
  2 25  1  0  0  0  0
  3  4  1  0  0  0  0
  3 26  1  0  0  0  0
  3 27  1  0  0  0  0
  4  5  1  0  0  0  0
  4 28  1  0  0  0  0
  4 29  1  0  0  0  0
  5  6  2  0  0  0  0
  5 10  1  0  0  0  0
  6  7  1  0  0  0  0
  6 11  1  0  0  0  0
  7  8  2  0  0  0  0
  7 30  1  0  0  0  0
  8  9  1  0  0  0  0
  8 31  1  0  0  0  0
  9 10  2  0  0  0  0
  9 32  1  0  0  0  0
 10 33  1  0  0  0  0
 11 12  2  0  0  0  0
 11 13  1  0  0  0  0
 13 14  1  0  0  0  0
 13 34  1  0  0  0  0
 14 15  2  0  0  0  0
 14 18  1  0  0  0  0
 15 16  1  0  0  0  0
 16 17  2  0  0  0  0
 16 35  1  0  0  0  0
 17 18  1  0  0  0  0
 17 19  1  0  0  0  0
 19 20  1  0  0  0  0
 19 21  2  0  0  0  0
 20 36  1  0  0  0  0
M  CHG  1  19   1
M  END
$$$$
