2D_structures\o7_MMV1645051_2D.pdb
 OpenBabel02252417213D

 15 15  0  0  0  0  0  0  0  0999 V2000
    3.4640   -2.3420    0.0000 Br  0  0  0  0  0  0  0  0  0  0  0  0
    2.5170   -1.1790    0.0000 C   0  0  0  0  0  0  0  0  0  0  0  0
    2.9020    0.2710    0.0000 C   0  0  0  0  0  0  0  0  0  0  0  0
    1.6430    1.0850    0.0000 C   0  0  0  0  0  0  0  0  0  0  0  0
    0.4790    0.1390    0.0000 C   0  0  0  0  0  0  0  0  0  0  0  0
    1.0200   -1.2600    0.0000 O   0  0  0  0  0  0  0  0  0  0  0  0
   -0.9710    0.5240    0.0000 C   0  0  0  0  0  0  0  0  0  0  0  0
   -2.0290   -0.5390    0.0000 C   0  0  0  0  0  0  0  0  0  0  0  0
   -1.6380   -1.9870    0.0000 Br  0  0  0  0  0  0  0  0  0  0  0  0
   -3.4790   -0.1540    0.0000 N   0  3  0  0  0  0  0  0  0  0  0  0
   -4.5370   -1.2170    0.0000 O   0  5  0  0  0  0  0  0  0  0  0  0
   -3.8700    1.2940    0.0000 O   0  0  0  0  0  0  0  0  0  0  0  0
    4.3010    0.8120    0.0000 H   0  0  0  0  0  0  0  0  0  0  0  0
    1.5610    2.5830    0.0000 H   0  0  0  0  0  0  0  0  0  0  0  0
   -1.3620    1.9720    0.0000 H   0  0  0  0  0  0  0  0  0  0  0  0
  1  2  1  0  0  0  0
  2  3  2  0  0  0  0
  2  6  1  0  0  0  0
  3  4  1  0  0  0  0
  3 13  1  0  0  0  0
  4  5  2  0  0  0  0
  4 14  1  0  0  0  0
  5  6  1  0  0  0  0
  5  7  1  0  0  0  0
  7  8  2  0  0  0  0
  7 15  1  0  0  0  0
  8  9  1  0  0  0  0
  8 10  1  0  0  0  0
 10 11  1  0  0  0  0
 10 12  2  0  0  0  0
M  CHG  2  10   1  11  -1
M  END
$$$$
