2D_structures\o80_MMV1579784_2D.pdb
 OpenBabel02252417213D

 40 42  0  0  0  0  0  0  0  0999 V2000
   -4.6030    3.8330    0.0000 O   0  0  0  0  0  0  0  0  0  0  0  0
   -3.9010    2.5080    0.0000 C   0  0  0  0  0  0  0  0  0  0  0  0
   -2.4020    2.4530    0.0000 O   0  0  0  0  0  0  0  0  0  0  0  0
   -4.6980    1.2370    0.0000 C   0  0  0  0  0  0  0  0  0  0  0  0
   -6.1970    1.2920    0.0000 C   0  0  0  0  0  0  0  0  0  0  0  0
   -6.9940    0.0210    0.0000 C   0  0  0  0  0  0  0  0  0  0  0  0
   -6.2920   -1.3050    0.0000 C   0  0  0  0  0  0  0  0  0  0  0  0
   -4.7930   -1.3590    0.0000 C   0  0  0  0  0  0  0  0  0  0  0  0
   -3.9960   -0.0890    0.0000 C   0  0  0  0  0  0  0  0  0  0  0  0
   -2.4970   -0.1430    0.0000 N   0  0  0  0  0  0  0  0  0  0  0  0
   -1.7950   -1.4690    0.0000 C   0  0  0  0  0  0  0  0  0  0  0  0
   -2.5910   -2.7400    0.0000 O   0  0  0  0  0  0  0  0  0  0  0  0
   -0.2960   -1.5230    0.0000 C   0  0  0  0  0  0  0  0  0  0  0  0
    0.4070   -2.8490    0.0000 C   0  0  0  0  0  0  0  0  0  0  0  0
    1.9060   -2.9040    0.0000 C   0  0  0  0  0  0  0  0  0  0  0  0
    2.7030   -1.6330    0.0000 C   0  0  0  0  0  0  0  0  0  0  0  0
    2.0000   -0.3070    0.0000 C   0  0  0  0  0  0  0  0  0  0  0  0
    2.7970    0.9640    0.0000 O   0  0  0  0  0  0  0  0  0  0  0  0
    4.2960    0.9090    0.0000 C   0  0  0  0  0  0  0  0  0  0  0  0
    4.9980   -0.4170    0.0000 C   0  0  0  0  0  0  0  0  0  0  0  0
    6.4970   -0.4710    0.0000 C   0  0  0  0  0  0  0  0  0  0  0  0
    7.2940    0.8000    0.0000 C   0  0  0  0  0  0  0  0  0  0  0  0
    6.5920    2.1250    0.0000 C   0  0  0  0  0  0  0  0  0  0  0  0
    5.0930    2.1800    0.0000 C   0  0  0  0  0  0  0  0  0  0  0  0
    0.5010   -0.2530    0.0000 C   0  0  0  0  0  0  0  0  0  0  0  0
   -3.8060    5.1040    0.0000 H   0  0  0  0  0  0  0  0  0  0  0  0
   -6.8990    2.6170    0.0000 H   0  0  0  0  0  0  0  0  0  0  0  0
   -8.4930    0.0750    0.0000 H   0  0  0  0  0  0  0  0  0  0  0  0
   -7.0880   -2.5760    0.0000 H   0  0  0  0  0  0  0  0  0  0  0  0
   -4.0900   -2.6850    0.0000 H   0  0  0  0  0  0  0  0  0  0  0  0
   -1.7000    1.1280    0.0000 H   0  0  0  0  0  0  0  0  0  0  0  0
   -0.3900   -4.1200    0.0000 H   0  0  0  0  0  0  0  0  0  0  0  0
    2.6080   -4.2290    0.0000 H   0  0  0  0  0  0  0  0  0  0  0  0
    3.6740   -1.7880    0.0000 H   0  0  0  0  0  0  0  0  0  0  0  0
    4.5810   -1.3080    0.0000 H   0  0  0  0  0  0  0  0  0  0  0  0
    7.2000   -1.7970    0.0000 H   0  0  0  0  0  0  0  0  0  0  0  0
    8.7930    0.7450    0.0000 H   0  0  0  0  0  0  0  0  0  0  0  0
    7.3890    3.3960    0.0000 H   0  0  0  0  0  0  0  0  0  0  0  0
    4.3910    3.5050    0.0000 H   0  0  0  0  0  0  0  0  0  0  0  0
   -0.2010    1.0730    0.0000 H   0  0  0  0  0  0  0  0  0  0  0  0
  1  2  1  0  0  0  0
  1 26  1  0  0  0  0
  2  3  2  0  0  0  0
  2  4  1  0  0  0  0
  4  5  2  0  0  0  0
  4  9  1  0  0  0  0
  5  6  1  0  0  0  0
  5 27  1  0  0  0  0
  6  7  2  0  0  0  0
  6 28  1  0  0  0  0
  7  8  1  0  0  0  0
  7 29  1  0  0  0  0
  8  9  2  0  0  0  0
  8 30  1  0  0  0  0
  9 10  1  0  0  0  0
 10 11  1  0  0  0  0
 10 31  1  0  0  0  0
 11 12  2  0  0  0  0
 11 13  1  0  0  0  0
 13 14  2  0  0  0  0
 13 25  1  0  0  0  0
 14 15  1  0  0  0  0
 14 32  1  0  0  0  0
 15 16  2  0  0  0  0
 15 33  1  0  0  0  0
 16 17  1  0  0  0  0
 16 34  1  0  0  0  0
 17 18  1  0  0  0  0
 17 25  2  0  0  0  0
 18 19  1  0  0  0  0
 19 20  2  0  0  0  0
 19 24  1  0  0  0  0
 20 21  1  0  0  0  0
 20 35  1  0  0  0  0
 21 22  2  0  0  0  0
 21 36  1  0  0  0  0
 22 23  1  0  0  0  0
 22 37  1  0  0  0  0
 23 24  2  0  0  0  0
 23 38  1  0  0  0  0
 24 39  1  0  0  0  0
 25 40  1  0  0  0  0
M  END
$$$$
