2D_structures\o9_MMV002731_2D.pdb
 OpenBabel02252417213D

 32 33  0  0  0  0  0  0  0  0999 V2000
    3.7710   -3.0710    0.0000 O   0  0  0  0  0  0  0  0  0  0  0  0
    2.9400   -1.8220    0.0000 C   0  0  0  0  0  0  0  0  0  0  0  0
    1.4430   -1.9180    0.0000 N   0  0  0  0  0  0  0  0  0  0  0  0
    0.7770   -3.2620    0.0000 O   0  0  0  0  0  0  0  0  0  0  0  0
    0.6120   -0.6690    0.0000 C   0  0  0  0  0  0  0  0  0  0  0  0
    1.2780    0.6750    0.0000 C   0  0  0  0  0  0  0  0  0  0  0  0
    2.7750    0.7700    0.0000 C   0  0  0  0  0  0  0  0  0  0  0  0
    3.6060   -0.4780    0.0000 C   0  0  0  0  0  0  0  0  0  0  0  0
    3.4400    2.1140    0.0000 C   0  0  0  0  0  0  0  0  0  0  0  0
   -0.8850   -0.7650    0.0000 C   0  0  0  0  0  0  0  0  0  0  0  0
   -0.7190    0.7260    0.0000 C   0  0  0  0  0  0  0  0  0  0  0  0
   -1.9270    1.6150    0.0000 C   0  0  0  0  0  0  0  0  0  0  0  0
   -3.3010    1.0140    0.0000 C   0  0  0  0  0  0  0  0  0  0  0  0
   -3.4670   -0.4770    0.0000 C   0  0  0  0  0  0  0  0  0  0  0  0
   -2.2590   -1.3660    0.0000 C   0  0  0  0  0  0  0  0  0  0  0  0
    1.6080   -4.5110    0.0000 H   0  0  0  0  0  0  0  0  0  0  0  0
    0.6720    1.8820    0.0000 H   0  0  0  0  0  0  0  0  0  0  0  0
    5.1030   -0.3830    0.0000 H   0  0  0  0  0  0  0  0  0  0  0  0
    4.1060    3.4590    0.0000 H   0  0  0  0  0  0  0  0  0  0  0  0
    4.7840    1.4490    0.0000 H   0  0  0  0  0  0  0  0  0  0  0  0
    2.0960    2.7800    0.0000 H   0  0  0  0  0  0  0  0  0  0  0  0
   -0.5310   -2.2220    0.0000 H   0  0  0  0  0  0  0  0  0  0  0  0
   -0.3170    1.8730    0.0000 H   0  0  0  0  0  0  0  0  0  0  0  0
    0.3730    0.6810    0.0000 H   0  0  0  0  0  0  0  0  0  0  0  0
   -2.7580    2.8640    0.0000 H   0  0  0  0  0  0  0  0  0  0  0  0
   -0.9510    2.5470    0.0000 H   0  0  0  0  0  0  0  0  0  0  0  0
   -4.7980    0.9180    0.0000 H   0  0  0  0  0  0  0  0  0  0  0  0
   -3.6550    2.4710    0.0000 H   0  0  0  0  0  0  0  0  0  0  0  0
   -4.1330   -1.8210    0.0000 H   0  0  0  0  0  0  0  0  0  0  0  0
   -4.9070   -0.0550    0.0000 H   0  0  0  0  0  0  0  0  0  0  0  0
   -1.4280   -2.6150    0.0000 H   0  0  0  0  0  0  0  0  0  0  0  0
   -3.3450   -2.4020    0.0000 H   0  0  0  0  0  0  0  0  0  0  0  0
  1  2  2  0  0  0  0
  2  3  1  0  0  0  0
  2  8  1  0  0  0  0
  3  4  1  0  0  0  0
  3  5  1  0  0  0  0
  4 16  1  0  0  0  0
  5  6  2  0  0  0  0
  5 10  1  0  0  0  0
  6  7  1  0  0  0  0
  6 17  1  0  0  0  0
  7  8  2  0  0  0  0
  7  9  1  0  0  0  0
  8 18  1  0  0  0  0
  9 19  1  0  0  0  0
  9 20  1  0  0  0  0
  9 21  1  0  0  0  0
 10 11  1  0  0  0  0
 10 15  1  0  0  0  0
 10 22  1  0  0  0  0
 11 12  1  0  0  0  0
 11 23  1  0  0  0  0
 11 24  1  0  0  0  0
 12 13  1  0  0  0  0
 12 25  1  0  0  0  0
 12 26  1  0  0  0  0
 13 14  1  0  0  0  0
 13 27  1  0  0  0  0
 13 28  1  0  0  0  0
 14 15  1  0  0  0  0
 14 29  1  0  0  0  0
 14 30  1  0  0  0  0
 15 31  1  0  0  0  0
 15 32  1  0  0  0  0
M  END
$$$$
