MODEL 1
REMARK VINA RESULT:      -5.4      0.000      0.000
REMARK  Name = ./3D_structures\o22_MMV1782111_3D.pdb
REMARK  13 active torsions:
REMARK  status: ('A' for Active; 'I' for Inactive)
REMARK    1  A    between atoms: C1_1  and  C2_2
REMARK    2  A    between atoms: C2_2  and  C3_3
REMARK    3  A    between atoms: C2_2  and  C4_4
REMARK    4  A    between atoms: N1_6  and  C5_7
REMARK    5  A    between atoms: C6_8  and  N2_22
REMARK    6  A    between atoms: C8_10  and  C13_19
REMARK    7  A    between atoms: C9_12  and  C10_13
REMARK    8  A    between atoms: C10_13  and  O3_14
REMARK    9  A    between atoms: C10_13  and  C11_15
REMARK   10  A    between atoms: C11_15  and  O4_16
REMARK   11  A    between atoms: C11_15  and  C12_17
REMARK   12  A    between atoms: C12_17  and  O5_18
REMARK   13  A    between atoms: C13_19  and  O6_20
REMARK                            x       y       z     vdW  Elec       q    Type
REMARK                         _______ _______ _______ _____ _____    ______ ____
ROOT
ATOM      1  C5  UNL     1     147.492 164.402 167.445  0.00  0.00    +0.000 C 
ATOM      2  C6  UNL     1     146.136 163.954 166.998  0.00  0.00    +0.000 C 
ATOM      3  C7  UNL     1     145.384 165.127 166.501  0.00  0.00    +0.000 C 
ATOM      4  C8  UNL     1     145.944 166.293 166.221  0.00  0.00    +0.000 C 
ATOM      5  O2  UNL     1     147.314 166.478 166.386  0.00  0.00    +0.000 OA
ATOM      6  C9  UNL     1     148.135 165.329 166.442  0.00  0.00    +0.000 C 
ENDROOT
BRANCH   1   9
ATOM      7  C4  UNL     1     148.963 163.172 169.100  0.00  0.00    +0.000 C 
ATOM      8  O1  UNL     1     148.726 164.079 169.942  0.00  0.00    +0.000 OA
ATOM      9  N1  UNL     1     148.353 163.297 167.815  0.00  0.00    +0.000 N 
ATOM     10  H8  UNL     1     148.567 162.528 167.129  0.00  0.00    +0.000 HD
BRANCH   7  12
ATOM     11  C1  UNL     1     151.280 162.481 169.666  0.00  0.00    +0.000 C 
ATOM     12  C2  UNL     1     149.845 162.020 169.440  0.00  0.00    +0.000 C 
ATOM     13  C3  UNL     1     149.786 160.938 168.401  0.00  0.00    +0.000 C 
ENDBRANCH   7  12
ENDBRANCH   1   9
BRANCH   2  14
ATOM     14  N2  UNL     1     145.462 163.344 168.148  0.00  0.00    +0.000 NA
ATOM     15  N3  UNL     1     145.715 162.189 168.485  0.00  0.00    +0.000 NA
ATOM     16  N4  UNL     1     146.054 161.011 168.680  0.00  0.00    +0.000 NA
ENDBRANCH   2  14
BRANCH   4  17
ATOM     17  C13 UNL     1     145.086 167.386 165.732  0.00  0.00    +0.000 C 
ATOM     18  O7  UNL     1     143.930 167.086 165.368  0.00  0.00    +0.000 OA
BRANCH  17  19
ATOM     19  O6  UNL     1     145.501 168.696 165.661  0.00  0.00    +0.000 OA
ATOM     20  H20 UNL     1     145.104 169.443 166.251  0.00  0.00    +0.000 HD
ENDBRANCH  17  19
ENDBRANCH   4  17
BRANCH   6  21
ATOM     21  C10 UNL     1     149.523 165.647 166.912  0.00  0.00    +0.000 C 
BRANCH  21  22
ATOM     22  O3  UNL     1     149.651 166.967 167.352  0.00  0.00    +0.000 OA
ATOM     23  H14 UNL     1     149.462 167.631 166.668  0.00  0.00    +0.000 HD
ENDBRANCH  21  22
BRANCH  21  24
ATOM     24  C11 UNL     1     150.605 165.270 165.948  0.00  0.00    +0.000 C 
BRANCH  24  25
ATOM     25  O4  UNL     1     150.824 163.885 166.112  0.00  0.00    +0.000 OA
ATOM     26  H16 UNL     1     150.294 163.361 165.459  0.00  0.00    +0.000 HD
ENDBRANCH  24  25
BRANCH  24  27
ATOM     27  C12 UNL     1     151.898 165.994 166.232  0.00  0.00    +0.000 C 
BRANCH  27  28
ATOM     28  O5  UNL     1     152.011 167.006 165.279  0.00  0.00    +0.000 OA
ATOM     29  H19 UNL     1     151.474 167.798 165.530  0.00  0.00    +0.000 HD
ENDBRANCH  27  28
ENDBRANCH  24  27
ENDBRANCH  21  24
ENDBRANCH   6  21
TORSDOF 11
ENDMDL
MODEL 2
REMARK VINA RESULT:      -5.3      3.493      5.169
REMARK  Name = ./3D_structures\o22_MMV1782111_3D.pdb
REMARK  13 active torsions:
REMARK  status: ('A' for Active; 'I' for Inactive)
REMARK    1  A    between atoms: C1_1  and  C2_2
REMARK    2  A    between atoms: C2_2  and  C3_3
REMARK    3  A    between atoms: C2_2  and  C4_4
REMARK    4  A    between atoms: N1_6  and  C5_7
REMARK    5  A    between atoms: C6_8  and  N2_22
REMARK    6  A    between atoms: C8_10  and  C13_19
REMARK    7  A    between atoms: C9_12  and  C10_13
REMARK    8  A    between atoms: C10_13  and  O3_14
REMARK    9  A    between atoms: C10_13  and  C11_15
REMARK   10  A    between atoms: C11_15  and  O4_16
REMARK   11  A    between atoms: C11_15  and  C12_17
REMARK   12  A    between atoms: C12_17  and  O5_18
REMARK   13  A    between atoms: C13_19  and  O6_20
REMARK                            x       y       z     vdW  Elec       q    Type
REMARK                         _______ _______ _______ _____ _____    ______ ____
ROOT
ATOM      1  C5  UNL     1     146.629 164.306 166.914  0.00  0.00    +0.000 C 
ATOM      2  C6  UNL     1     145.640 165.257 166.318  0.00  0.00    +0.000 C 
ATOM      3  C7  UNL     1     144.964 164.596 165.180  0.00  0.00    +0.000 C 
ATOM      4  C8  UNL     1     145.019 163.294 164.951  0.00  0.00    +0.000 C 
ATOM      5  O2  UNL     1     145.738 162.455 165.798  0.00  0.00    +0.000 OA
ATOM      6  C9  UNL     1     146.041 162.927 167.095  0.00  0.00    +0.000 C 
ENDROOT
BRANCH   1   9
ATOM      7  C4  UNL     1     148.622 165.150 168.229  0.00  0.00    +0.000 C 
ATOM      8  O1  UNL     1     149.333 164.987 167.202  0.00  0.00    +0.000 OA
ATOM      9  N1  UNL     1     147.238 164.816 168.125  0.00  0.00    +0.000 N 
ATOM     10  H8  UNL     1     146.664 164.960 168.997  0.00  0.00    +0.000 HD
BRANCH   7  12
ATOM     11  C1  UNL     1     150.355 166.634 169.209  0.00  0.00    +0.000 C 
ATOM     12  C2  UNL     1     149.210 165.671 169.496  0.00  0.00    +0.000 C 
ATOM     13  C3  UNL     1     149.653 164.564 170.408  0.00  0.00    +0.000 C 
ENDBRANCH   7  12
ENDBRANCH   1   9
BRANCH   2  14
ATOM     14  N2  UNL     1     146.372 166.449 165.877  0.00  0.00    +0.000 NA
ATOM     15  N3  UNL     1     145.819 167.547 165.835  0.00  0.00    +0.000 NA
ATOM     16  N4  UNL     1     145.119 168.571 165.819  0.00  0.00    +0.000 NA
ENDBRANCH   2  14
BRANCH   4  17
ATOM     17  C13 UNL     1     144.302 162.755 163.782  0.00  0.00    +0.000 C 
ATOM     18  O7  UNL     1     143.185 163.249 163.519  0.00  0.00    +0.000 OA
BRANCH  17  19
ATOM     19  O6  UNL     1     144.803 161.750 162.987  0.00  0.00    +0.000 OA
ATOM     20  H20 UNL     1     144.247 161.284 162.254  0.00  0.00    +0.000 HD
ENDBRANCH  17  19
ENDBRANCH   4  17
BRANCH   6  21
ATOM     21  C10 UNL     1     147.055 162.067 167.788  0.00  0.00    +0.000 C 
BRANCH  21  22
ATOM     22  O3  UNL     1     148.305 162.104 167.165  0.00  0.00    +0.000 OA
ATOM     23  H14 UNL     1     148.803 161.272 167.227  0.00  0.00    +0.000 HD
ENDBRANCH  21  22
BRANCH  21  24
ATOM     24  C11 UNL     1     146.600 160.665 168.051  0.00  0.00    +0.000 C 
BRANCH  24  25
ATOM     25  O4  UNL     1     146.785 159.951 166.847  0.00  0.00    +0.000 OA
ATOM     26  H16 UNL     1     147.499 159.272 166.941  0.00  0.00    +0.000 HD
ENDBRANCH  24  25
BRANCH  24  27
ATOM     27  C12 UNL     1     145.139 160.601 168.423  0.00  0.00    +0.000 C 
BRANCH  27  28
ATOM     28  O5  UNL     1     145.082 160.457 169.810  0.00  0.00    +0.000 OA
ATOM     29  H19 UNL     1     144.233 160.811 170.173  0.00  0.00    +0.000 HD
ENDBRANCH  27  28
ENDBRANCH  24  27
ENDBRANCH  21  24
ENDBRANCH   6  21
TORSDOF 11
ENDMDL
MODEL 3
REMARK VINA RESULT:      -5.2      3.495      4.754
REMARK  Name = ./3D_structures\o22_MMV1782111_3D.pdb
REMARK  13 active torsions:
REMARK  status: ('A' for Active; 'I' for Inactive)
REMARK    1  A    between atoms: C1_1  and  C2_2
REMARK    2  A    between atoms: C2_2  and  C3_3
REMARK    3  A    between atoms: C2_2  and  C4_4
REMARK    4  A    between atoms: N1_6  and  C5_7
REMARK    5  A    between atoms: C6_8  and  N2_22
REMARK    6  A    between atoms: C8_10  and  C13_19
REMARK    7  A    between atoms: C9_12  and  C10_13
REMARK    8  A    between atoms: C10_13  and  O3_14
REMARK    9  A    between atoms: C10_13  and  C11_15
REMARK   10  A    between atoms: C11_15  and  O4_16
REMARK   11  A    between atoms: C11_15  and  C12_17
REMARK   12  A    between atoms: C12_17  and  O5_18
REMARK   13  A    between atoms: C13_19  and  O6_20
REMARK                            x       y       z     vdW  Elec       q    Type
REMARK                         _______ _______ _______ _____ _____    ______ ____
ROOT
ATOM      1  C5  UNL     1     145.098 162.163 166.192  0.00  0.00    +0.000 C 
ATOM      2  C6  UNL     1     144.793 162.515 164.770  0.00  0.00    +0.000 C 
ATOM      3  C7  UNL     1     144.240 163.885 164.723  0.00  0.00    +0.000 C 
ATOM      4  C8  UNL     1     144.307 164.739 165.732  0.00  0.00    +0.000 C 
ATOM      5  O2  UNL     1     144.923 164.376 166.926  0.00  0.00    +0.000 OA
ATOM      6  C9  UNL     1     145.819 163.284 166.903  0.00  0.00    +0.000 C 
ENDROOT
BRANCH   1   9
ATOM      7  C4  UNL     1     145.242 159.783 167.044  0.00  0.00    +0.000 C 
ATOM      8  O1  UNL     1     144.115 159.939 167.587  0.00  0.00    +0.000 OA
ATOM      9  N1  UNL     1     145.779 160.891 166.322  0.00  0.00    +0.000 N 
ATOM     10  H8  UNL     1     146.721 160.737 165.878  0.00  0.00    +0.000 HD
BRANCH   7  12
ATOM     11  C1  UNL     1     146.933 158.508 168.341  0.00  0.00    +0.000 C 
ATOM     12  C2  UNL     1     145.976 158.490 167.155  0.00  0.00    +0.000 C 
ATOM     13  C3  UNL     1     146.698 158.141 165.887  0.00  0.00    +0.000 C 
ENDBRANCH   7  12
ENDBRANCH   1   9
BRANCH   2  14
ATOM     14  N2  UNL     1     143.825 161.536 164.263  0.00  0.00    +0.000 NA
ATOM     15  N3  UNL     1     144.202 160.475 163.770  0.00  0.00    +0.000 NA
ATOM     16  N4  UNL     1     144.737 159.471 163.275  0.00  0.00    +0.000 NA
ENDBRANCH   2  14
BRANCH   4  17
ATOM     17  C13 UNL     1     143.717 166.078 165.560  0.00  0.00    +0.000 C 
ATOM     18  O7  UNL     1     142.484 166.140 165.373  0.00  0.00    +0.000 OA
BRANCH  17  19
ATOM     19  O6  UNL     1     144.456 167.238 165.597  0.00  0.00    +0.000 OA
ATOM     20  H20 UNL     1     144.755 167.740 164.747  0.00  0.00    +0.000 HD
ENDBRANCH  17  19
ENDBRANCH   4  17
BRANCH   6  21
ATOM     21  C10 UNL     1     146.178 162.816 168.282  0.00  0.00    +0.000 C 
BRANCH  21  22
ATOM     22  O3  UNL     1     145.053 162.531 169.061  0.00  0.00    +0.000 OA
ATOM     23  H14 UNL     1     144.344 163.192 168.987  0.00  0.00    +0.000 HD
ENDBRANCH  21  22
BRANCH  21  24
ATOM     24  C11 UNL     1     147.150 163.700 169.001  0.00  0.00    +0.000 C 
BRANCH  24  25
ATOM     25  O4  UNL     1     148.206 162.868 169.432  0.00  0.00    +0.000 OA
ATOM     26  H16 UNL     1     148.008 161.916 169.245  0.00  0.00    +0.000 HD
ENDBRANCH  24  25
BRANCH  24  27
ATOM     27  C12 UNL     1     146.533 164.354 170.214  0.00  0.00    +0.000 C 
BRANCH  27  28
ATOM     28  O5  UNL     1     145.702 165.372 169.744  0.00  0.00    +0.000 OA
ATOM     29  H19 UNL     1     145.305 165.884 170.491  0.00  0.00    +0.000 HD
ENDBRANCH  27  28
ENDBRANCH  24  27
ENDBRANCH  21  24
ENDBRANCH   6  21
TORSDOF 11
ENDMDL
MODEL 4
REMARK VINA RESULT:      -4.9      2.956      5.959
REMARK  Name = ./3D_structures\o22_MMV1782111_3D.pdb
REMARK  13 active torsions:
REMARK  status: ('A' for Active; 'I' for Inactive)
REMARK    1  A    between atoms: C1_1  and  C2_2
REMARK    2  A    between atoms: C2_2  and  C3_3
REMARK    3  A    between atoms: C2_2  and  C4_4
REMARK    4  A    between atoms: N1_6  and  C5_7
REMARK    5  A    between atoms: C6_8  and  N2_22
REMARK    6  A    between atoms: C8_10  and  C13_19
REMARK    7  A    between atoms: C9_12  and  C10_13
REMARK    8  A    between atoms: C10_13  and  O3_14
REMARK    9  A    between atoms: C10_13  and  C11_15
REMARK   10  A    between atoms: C11_15  and  O4_16
REMARK   11  A    between atoms: C11_15  and  C12_17
REMARK   12  A    between atoms: C12_17  and  O5_18
REMARK   13  A    between atoms: C13_19  and  O6_20
REMARK                            x       y       z     vdW  Elec       q    Type
REMARK                         _______ _______ _______ _____ _____    ______ ____
ROOT
ATOM      1  C5  UNL     1     146.477 164.919 167.190  0.00  0.00    +0.000 C 
ATOM      2  C6  UNL     1     146.996 165.764 166.069  0.00  0.00    +0.000 C 
ATOM      3  C7  UNL     1     148.457 165.929 166.230  0.00  0.00    +0.000 C 
ATOM      4  C8  UNL     1     149.193 165.194 167.047  0.00  0.00    +0.000 C 
ATOM      5  O2  UNL     1     148.609 164.194 167.820  0.00  0.00    +0.000 OA
ATOM      6  C9  UNL     1     147.344 163.704 167.423  0.00  0.00    +0.000 C 
ENDROOT
BRANCH   1   9
ATOM      7  C4  UNL     1     144.580 163.731 166.006  0.00  0.00    +0.000 C 
ATOM      8  O1  UNL     1     145.421 163.256 165.196  0.00  0.00    +0.000 OA
ATOM      9  N1  UNL     1     145.077 164.583 167.038  0.00  0.00    +0.000 N 
ATOM     10  H8  UNL     1     144.355 164.968 167.702  0.00  0.00    +0.000 HD
BRANCH   7  12
ATOM     11  C1  UNL     1     142.546 163.003 167.230  0.00  0.00    +0.000 C 
ATOM     12  C2  UNL     1     143.130 163.411 165.883  0.00  0.00    +0.000 C 
ATOM     13  C3  UNL     1     142.871 162.360 164.843  0.00  0.00    +0.000 C 
ENDBRANCH   7  12
ENDBRANCH   1   9
BRANCH   2  14
ATOM     14  N2  UNL     1     146.308 167.058 166.127  0.00  0.00    +0.000 NA
ATOM     15  N3  UNL     1     145.147 167.172 165.738  0.00  0.00    +0.000 NA
ATOM     16  N4  UNL     1     143.994 167.132 165.282  0.00  0.00    +0.000 NA
ENDBRANCH   2  14
BRANCH   4  17
ATOM     17  C13 UNL     1     150.641 165.456 167.117  0.00  0.00    +0.000 C 
ATOM     18  O7  UNL     1     151.398 164.467 167.212  0.00  0.00    +0.000 OA
BRANCH  17  19
ATOM     19  O6  UNL     1     151.180 166.721 167.082  0.00  0.00    +0.000 OA
ATOM     20  H20 UNL     1     150.680 167.554 167.428  0.00  0.00    +0.000 HD
ENDBRANCH  17  19
ENDBRANCH   4  17
BRANCH   6  21
ATOM     21  C10 UNL     1     146.704 162.862 168.485  0.00  0.00    +0.000 C 
BRANCH  21  22
ATOM     22  O3  UNL     1     147.232 163.109 169.755  0.00  0.00    +0.000 OA
ATOM     23  H14 UNL     1     146.638 163.608 170.340  0.00  0.00    +0.000 HD
ENDBRANCH  21  22
BRANCH  21  24
ATOM     24  C11 UNL     1     146.660 161.398 168.171  0.00  0.00    +0.000 C 
BRANCH  24  25
ATOM     25  O4  UNL     1     146.938 161.276 166.792  0.00  0.00    +0.000 OA
ATOM     26  H16 UNL     1     146.964 162.163 166.354  0.00  0.00    +0.000 HD
ENDBRANCH  24  25
BRANCH  24  27
ATOM     27  C12 UNL     1     145.299 160.801 168.437  0.00  0.00    +0.000 C 
BRANCH  27  28
ATOM     28  O5  UNL     1     145.102 160.847 169.818  0.00  0.00    +0.000 OA
ATOM     29  H19 UNL     1     144.152 161.007 170.040  0.00  0.00    +0.000 HD
ENDBRANCH  27  28
ENDBRANCH  24  27
ENDBRANCH  21  24
ENDBRANCH   6  21
TORSDOF 11
ENDMDL
MODEL 5
REMARK VINA RESULT:      -4.9      1.392      1.957
REMARK  Name = ./3D_structures\o22_MMV1782111_3D.pdb
REMARK  13 active torsions:
REMARK  status: ('A' for Active; 'I' for Inactive)
REMARK    1  A    between atoms: C1_1  and  C2_2
REMARK    2  A    between atoms: C2_2  and  C3_3
REMARK    3  A    between atoms: C2_2  and  C4_4
REMARK    4  A    between atoms: N1_6  and  C5_7
REMARK    5  A    between atoms: C6_8  and  N2_22
REMARK    6  A    between atoms: C8_10  and  C13_19
REMARK    7  A    between atoms: C9_12  and  C10_13
REMARK    8  A    between atoms: C10_13  and  O3_14
REMARK    9  A    between atoms: C10_13  and  C11_15
REMARK   10  A    between atoms: C11_15  and  O4_16
REMARK   11  A    between atoms: C11_15  and  C12_17
REMARK   12  A    between atoms: C12_17  and  O5_18
REMARK   13  A    between atoms: C13_19  and  O6_20
REMARK                            x       y       z     vdW  Elec       q    Type
REMARK                         _______ _______ _______ _____ _____    ______ ____
ROOT
ATOM      1  C5  UNL     1     148.585 163.912 167.643  0.00  0.00    +0.000 C 
ATOM      2  C6  UNL     1     147.246 163.307 167.356  0.00  0.00    +0.000 C 
ATOM      3  C7  UNL     1     146.347 164.360 166.836  0.00  0.00    +0.000 C 
ATOM      4  C8  UNL     1     146.766 165.542 166.414  0.00  0.00    +0.000 C 
ATOM      5  O2  UNL     1     148.121 165.862 166.440  0.00  0.00    +0.000 OA
ATOM      6  C9  UNL     1     149.051 164.800 166.514  0.00  0.00    +0.000 C 
ENDROOT
BRANCH   1   9
ATOM      7  C4  UNL     1     150.253 162.934 169.278  0.00  0.00    +0.000 C 
ATOM      8  O1  UNL     1     149.956 163.854 170.088  0.00  0.00    +0.000 OA
ATOM      9  N1  UNL     1     149.576 162.926 168.022  0.00  0.00    +0.000 N 
ATOM     10  H8  UNL     1     149.841 162.148 167.363  0.00  0.00    +0.000 HD
BRANCH   7  12
ATOM     11  C1  UNL     1     150.771 160.505 169.273  0.00  0.00    +0.000 C 
ATOM     12  C2  UNL     1     151.269 161.901 169.629  0.00  0.00    +0.000 C 
ATOM     13  C3  UNL     1     151.674 161.976 171.072  0.00  0.00    +0.000 C 
ENDBRANCH   7  12
ENDBRANCH   1   9
BRANCH   2  14
ATOM     14  N2  UNL     1     146.731 162.743 168.608  0.00  0.00    +0.000 NA
ATOM     15  N3  UNL     1     146.607 163.444 169.610  0.00  0.00    +0.000 NA
ATOM     16  N4  UNL     1     146.568 164.268 170.537  0.00  0.00    +0.000 NA
ENDBRANCH   2  14
BRANCH   4  17
ATOM     17  C13 UNL     1     145.770 166.505 165.918  0.00  0.00    +0.000 C 
ATOM     18  O7  UNL     1     146.181 167.639 165.593  0.00  0.00    +0.000 OA
BRANCH  17  19
ATOM     19  O6  UNL     1     144.430 166.212 165.801  0.00  0.00    +0.000 OA
ATOM     20  H20 UNL     1     143.717 166.576 166.451  0.00  0.00    +0.000 HD
ENDBRANCH  17  19
ENDBRANCH   4  17
BRANCH   6  21
ATOM     21  C10 UNL     1     150.435 165.281 166.831  0.00  0.00    +0.000 C 
BRANCH  21  22
ATOM     22  O3  UNL     1     150.436 166.510 167.497  0.00  0.00    +0.000 OA
ATOM     23  H14 UNL     1     151.121 167.127 167.187  0.00  0.00    +0.000 HD
ENDBRANCH  21  22
BRANCH  21  24
ATOM     24  C11 UNL     1     151.374 165.274 165.665  0.00  0.00    +0.000 C 
BRANCH  24  25
ATOM     25  O4  UNL     1     150.666 165.826 164.576  0.00  0.00    +0.000 OA
ATOM     26  H16 UNL     1     149.822 166.248 164.877  0.00  0.00    +0.000 HD
ENDBRANCH  24  25
BRANCH  24  27
ATOM     27  C12 UNL     1     151.808 163.877 165.293  0.00  0.00    +0.000 C 
BRANCH  27  28
ATOM     28  O5  UNL     1     151.778 163.803 163.900  0.00  0.00    +0.000 OA
ATOM     29  H19 UNL     1     152.518 163.245 163.554  0.00  0.00    +0.000 HD
ENDBRANCH  27  28
ENDBRANCH  24  27
ENDBRANCH  21  24
ENDBRANCH   6  21
TORSDOF 11
ENDMDL
MODEL 6
REMARK VINA RESULT:      -4.8     21.481     24.676
REMARK  Name = ./3D_structures\o22_MMV1782111_3D.pdb
REMARK  13 active torsions:
REMARK  status: ('A' for Active; 'I' for Inactive)
REMARK    1  A    between atoms: C1_1  and  C2_2
REMARK    2  A    between atoms: C2_2  and  C3_3
REMARK    3  A    between atoms: C2_2  and  C4_4
REMARK    4  A    between atoms: N1_6  and  C5_7
REMARK    5  A    between atoms: C6_8  and  N2_22
REMARK    6  A    between atoms: C8_10  and  C13_19
REMARK    7  A    between atoms: C9_12  and  C10_13
REMARK    8  A    between atoms: C10_13  and  O3_14
REMARK    9  A    between atoms: C10_13  and  C11_15
REMARK   10  A    between atoms: C11_15  and  O4_16
REMARK   11  A    between atoms: C11_15  and  C12_17
REMARK   12  A    between atoms: C12_17  and  O5_18
REMARK   13  A    between atoms: C13_19  and  O6_20
REMARK                            x       y       z     vdW  Elec       q    Type
REMARK                         _______ _______ _______ _____ _____    ______ ____
ROOT
ATOM      1  C5  UNL     1     162.446 144.987 168.518  0.00  0.00    +0.000 C 
ATOM      2  C6  UNL     1     163.145 146.037 167.713  0.00  0.00    +0.000 C 
ATOM      3  C7  UNL     1     162.831 147.366 168.283  0.00  0.00    +0.000 C 
ATOM      4  C8  UNL     1     162.284 147.543 169.475  0.00  0.00    +0.000 C 
ATOM      5  O2  UNL     1     161.969 146.450 170.278  0.00  0.00    +0.000 OA
ATOM      6  C9  UNL     1     162.606 145.220 170.001  0.00  0.00    +0.000 C 
ENDROOT
BRANCH   1   9
ATOM      7  C4  UNL     1     161.864 142.670 167.678  0.00  0.00    +0.000 C 
ATOM      8  O1  UNL     1     160.653 143.021 167.634  0.00  0.00    +0.000 OA
ATOM      9  N1  UNL     1     162.810 143.642 168.122  0.00  0.00    +0.000 N 
ATOM     10  H8  UNL     1     163.814 143.326 168.150  0.00  0.00    +0.000 HD
BRANCH   7  12
ATOM     11  C1  UNL     1     161.679 140.912 165.934  0.00  0.00    +0.000 C 
ATOM     12  C2  UNL     1     162.279 141.295 167.281  0.00  0.00    +0.000 C 
ATOM     13  C3  UNL     1     161.937 140.278 168.330  0.00  0.00    +0.000 C 
ENDBRANCH   7  12
ENDBRANCH   1   9
BRANCH   2  14
ATOM     14  N2  UNL     1     162.673 145.931 166.329  0.00  0.00    +0.000 NA
ATOM     15  N3  UNL     1     161.472 145.974 166.068  0.00  0.00    +0.000 NA
ATOM     16  N4  UNL     1     160.236 146.005 165.971  0.00  0.00    +0.000 NA
ENDBRANCH   2  14
BRANCH   4  17
ATOM     17  C13 UNL     1     162.020 148.918 169.930  0.00  0.00    +0.000 C 
ATOM     18  O7  UNL     1     160.866 149.176 170.333  0.00  0.00    +0.000 OA
BRANCH  17  19
ATOM     19  O6  UNL     1     162.974 149.910 169.927  0.00  0.00    +0.000 OA
ATOM     20  H20 UNL     1     162.965 150.699 170.590  0.00  0.00    +0.000 HD
ENDBRANCH  17  19
ENDBRANCH   4  17
BRANCH   6  21
ATOM     21  C10 UNL     1     161.969 144.075 170.731  0.00  0.00    +0.000 C 
BRANCH  21  22
ATOM     22  O3  UNL     1     160.579 144.055 170.587  0.00  0.00    +0.000 OA
ATOM     23  H14 UNL     1     160.095 144.279 171.399  0.00  0.00    +0.000 HD
ENDBRANCH  21  22
BRANCH  21  24
ATOM     24  C11 UNL     1     162.387 143.946 172.164  0.00  0.00    +0.000 C 
BRANCH  24  25
ATOM     25  O4  UNL     1     162.573 142.568 172.405  0.00  0.00    +0.000 OA
ATOM     26  H16 UNL     1     163.514 142.373 172.644  0.00  0.00    +0.000 HD
ENDBRANCH  24  25
BRANCH  24  27
ATOM     27  C12 UNL     1     161.329 144.457 173.112  0.00  0.00    +0.000 C 
BRANCH  27  28
ATOM     28  O5  UNL     1     160.643 143.341 173.590  0.00  0.00    +0.000 OA
ATOM     29  H19 UNL     1     161.136 142.905 174.329  0.00  0.00    +0.000 HD
ENDBRANCH  27  28
ENDBRANCH  24  27
ENDBRANCH  21  24
ENDBRANCH   6  21
TORSDOF 11
ENDMDL
MODEL 7
REMARK VINA RESULT:      -4.7     22.158     25.167
REMARK  Name = ./3D_structures\o22_MMV1782111_3D.pdb
REMARK  13 active torsions:
REMARK  status: ('A' for Active; 'I' for Inactive)
REMARK    1  A    between atoms: C1_1  and  C2_2
REMARK    2  A    between atoms: C2_2  and  C3_3
REMARK    3  A    between atoms: C2_2  and  C4_4
REMARK    4  A    between atoms: N1_6  and  C5_7
REMARK    5  A    between atoms: C6_8  and  N2_22
REMARK    6  A    between atoms: C8_10  and  C13_19
REMARK    7  A    between atoms: C9_12  and  C10_13
REMARK    8  A    between atoms: C10_13  and  O3_14
REMARK    9  A    between atoms: C10_13  and  C11_15
REMARK   10  A    between atoms: C11_15  and  O4_16
REMARK   11  A    between atoms: C11_15  and  C12_17
REMARK   12  A    between atoms: C12_17  and  O5_18
REMARK   13  A    between atoms: C13_19  and  O6_20
REMARK                            x       y       z     vdW  Elec       q    Type
REMARK                         _______ _______ _______ _____ _____    ______ ____
ROOT
ATOM      1  C5  UNL     1     161.773 144.884 168.986  0.00  0.00    +0.000 C 
ATOM      2  C6  UNL     1     160.988 144.230 167.894  0.00  0.00    +0.000 C 
ATOM      3  C7  UNL     1     161.320 142.790 167.861  0.00  0.00    +0.000 C 
ATOM      4  C8  UNL     1     161.960 142.162 168.834  0.00  0.00    +0.000 C 
ATOM      5  O2  UNL     1     162.364 142.850 169.975  0.00  0.00    +0.000 OA
ATOM      6  C9  UNL     1     161.731 144.080 170.264  0.00  0.00    +0.000 C 
ENDROOT
BRANCH   1   9
ATOM      7  C4  UNL     1     162.309 147.360 168.996  0.00  0.00    +0.000 C 
ATOM      8  O1  UNL     1     163.482 147.078 168.630  0.00  0.00    +0.000 OA
ATOM      9  N1  UNL     1     161.406 146.271 169.188  0.00  0.00    +0.000 N 
ATOM     10  H8  UNL     1     160.432 146.531 169.495  0.00  0.00    +0.000 HD
BRANCH   7  12
ATOM     11  C1  UNL     1     163.074 149.721 169.058  0.00  0.00    +0.000 C 
ATOM     12  C2  UNL     1     161.891 148.773 169.217  0.00  0.00    +0.000 C 
ATOM     13  C3  UNL     1     161.225 148.963 170.549  0.00  0.00    +0.000 C 
ENDBRANCH   7  12
ENDBRANCH   1   9
BRANCH   2  14
ATOM     14  N2  UNL     1     161.345 144.884 166.630  0.00  0.00    +0.000 NA
ATOM     15  N3  UNL     1     162.507 144.882 166.228  0.00  0.00    +0.000 NA
ATOM     16  N4  UNL     1     163.719 144.821 165.973  0.00  0.00    +0.000 NA
ENDBRANCH   2  14
BRANCH   4  17
ATOM     17  C13 UNL     1     162.232 140.722 168.682  0.00  0.00    +0.000 C 
ATOM     18  O7  UNL     1     163.102 140.222 169.426  0.00  0.00    +0.000 OA
BRANCH  17  19
ATOM     19  O6  UNL     1     161.579 139.924 167.771  0.00  0.00    +0.000 OA
ATOM     20  H20 UNL     1     160.750 139.359 168.012  0.00  0.00    +0.000 HD
ENDBRANCH  17  19
ENDBRANCH   4  17
BRANCH   6  21
ATOM     21  C10 UNL     1     162.451 144.850 171.331  0.00  0.00    +0.000 C 
BRANCH  21  22
ATOM     22  O3  UNL     1     163.780 145.119 170.994  0.00  0.00    +0.000 OA
ATOM     23  H14 UNL     1     164.337 145.369 171.750  0.00  0.00    +0.000 HD
ENDBRANCH  21  22
BRANCH  21  24
ATOM     24  C11 UNL     1     162.328 144.265 172.704  0.00  0.00    +0.000 C 
BRANCH  24  25
ATOM     25  O4  UNL     1     161.211 143.402 172.674  0.00  0.00    +0.000 OA
ATOM     26  H16 UNL     1     161.155 142.923 171.809  0.00  0.00    +0.000 HD
ENDBRANCH  24  25
BRANCH  24  27
ATOM     27  C12 UNL     1     162.084 145.323 173.753  0.00  0.00    +0.000 C 
BRANCH  27  28
ATOM     28  O5  UNL     1     162.407 146.549 173.171  0.00  0.00    +0.000 OA
ATOM     29  H19 UNL     1     163.381 146.627 173.017  0.00  0.00    +0.000 HD
ENDBRANCH  27  28
ENDBRANCH  24  27
ENDBRANCH  21  24
ENDBRANCH   6  21
TORSDOF 11
ENDMDL
MODEL 8
REMARK VINA RESULT:      -4.7      8.151      9.774
REMARK  Name = ./3D_structures\o22_MMV1782111_3D.pdb
REMARK  13 active torsions:
REMARK  status: ('A' for Active; 'I' for Inactive)
REMARK    1  A    between atoms: C1_1  and  C2_2
REMARK    2  A    between atoms: C2_2  and  C3_3
REMARK    3  A    between atoms: C2_2  and  C4_4
REMARK    4  A    between atoms: N1_6  and  C5_7
REMARK    5  A    between atoms: C6_8  and  N2_22
REMARK    6  A    between atoms: C8_10  and  C13_19
REMARK    7  A    between atoms: C9_12  and  C10_13
REMARK    8  A    between atoms: C10_13  and  O3_14
REMARK    9  A    between atoms: C10_13  and  C11_15
REMARK   10  A    between atoms: C11_15  and  O4_16
REMARK   11  A    between atoms: C11_15  and  C12_17
REMARK   12  A    between atoms: C12_17  and  O5_18
REMARK   13  A    between atoms: C13_19  and  O6_20
REMARK                            x       y       z     vdW  Elec       q    Type
REMARK                         _______ _______ _______ _____ _____    ______ ____
ROOT
ATOM      1  C5  UNL     1     154.749 158.953 169.932  0.00  0.00    +0.000 C 
ATOM      2  C6  UNL     1     153.834 158.465 168.854  0.00  0.00    +0.000 C 
ATOM      3  C7  UNL     1     152.461 158.368 169.397  0.00  0.00    +0.000 C 
ATOM      4  C8  UNL     1     152.084 158.920 170.539  0.00  0.00    +0.000 C 
ATOM      5  O2  UNL     1     152.990 159.642 171.310  0.00  0.00    +0.000 OA
ATOM      6  C9  UNL     1     154.158 160.125 170.678  0.00  0.00    +0.000 C 
ENDROOT
BRANCH   1   9
ATOM      7  C4  UNL     1     157.253 158.578 169.981  0.00  0.00    +0.000 C 
ATOM      8  O1  UNL     1     157.081 157.745 170.912  0.00  0.00    +0.000 OA
ATOM      9  N1  UNL     1     156.090 159.216 169.453  0.00  0.00    +0.000 N 
ATOM     10  H8  UNL     1     156.259 159.908 168.677  0.00  0.00    +0.000 HD
BRANCH   7  12
ATOM     11  C1  UNL     1     158.855 160.382 169.393  0.00  0.00    +0.000 C 
ATOM     12  C2  UNL     1     158.617 158.878 169.461  0.00  0.00    +0.000 C 
ATOM     13  C3  UNL     1     158.866 158.234 168.128  0.00  0.00    +0.000 C 
ENDBRANCH   7  12
ENDBRANCH   1   9
BRANCH   2  14
ATOM     14  N2  UNL     1     154.320 157.154 168.411  0.00  0.00    +0.000 NA
ATOM     15  N3  UNL     1     154.975 157.042 167.377  0.00  0.00    +0.000 NA
ATOM     16  N4  UNL     1     155.594 157.088 166.303  0.00  0.00    +0.000 NA
ENDBRANCH   2  14
BRANCH   4  17
ATOM     17  C13 UNL     1     150.686 158.752 170.972  0.00  0.00    +0.000 C 
ATOM     18  O7  UNL     1     149.793 159.081 170.164  0.00  0.00    +0.000 OA
BRANCH  17  19
ATOM     19  O6  UNL     1     150.333 158.259 172.207  0.00  0.00    +0.000 OA
ATOM     20  H20 UNL     1     149.554 158.642 172.763  0.00  0.00    +0.000 HD
ENDBRANCH  17  19
ENDBRANCH   4  17
BRANCH   6  21
ATOM     21  C10 UNL     1     155.174 160.618 171.666  0.00  0.00    +0.000 C 
BRANCH  21  22
ATOM     22  O3  UNL     1     155.455 159.676 172.660  0.00  0.00    +0.000 OA
ATOM     23  H14 UNL     1     155.710 160.065 173.513  0.00  0.00    +0.000 HD
ENDBRANCH  21  22
BRANCH  21  24
ATOM     24  C11 UNL     1     154.873 161.967 172.241  0.00  0.00    +0.000 C 
BRANCH  24  25
ATOM     25  O4  UNL     1     153.777 161.797 173.113  0.00  0.00    +0.000 OA
ATOM     26  H16 UNL     1     154.010 162.069 174.036  0.00  0.00    +0.000 HD
ENDBRANCH  24  25
BRANCH  24  27
ATOM     27  C12 UNL     1     154.485 162.965 171.177  0.00  0.00    +0.000 C 
BRANCH  27  28
ATOM     28  O5  UNL     1     155.667 163.381 170.564  0.00  0.00    +0.000 OA
ATOM     29  H19 UNL     1     155.563 163.435 169.582  0.00  0.00    +0.000 HD
ENDBRANCH  27  28
ENDBRANCH  24  27
ENDBRANCH  21  24
ENDBRANCH   6  21
TORSDOF 11
ENDMDL
MODEL 9
REMARK VINA RESULT:      -4.6      3.077      6.715
REMARK  Name = ./3D_structures\o22_MMV1782111_3D.pdb
REMARK  13 active torsions:
REMARK  status: ('A' for Active; 'I' for Inactive)
REMARK    1  A    between atoms: C1_1  and  C2_2
REMARK    2  A    between atoms: C2_2  and  C3_3
REMARK    3  A    between atoms: C2_2  and  C4_4
REMARK    4  A    between atoms: N1_6  and  C5_7
REMARK    5  A    between atoms: C6_8  and  N2_22
REMARK    6  A    between atoms: C8_10  and  C13_19
REMARK    7  A    between atoms: C9_12  and  C10_13
REMARK    8  A    between atoms: C10_13  and  O3_14
REMARK    9  A    between atoms: C10_13  and  C11_15
REMARK   10  A    between atoms: C11_15  and  O4_16
REMARK   11  A    between atoms: C11_15  and  C12_17
REMARK   12  A    between atoms: C12_17  and  O5_18
REMARK   13  A    between atoms: C13_19  and  O6_20
REMARK                            x       y       z     vdW  Elec       q    Type
REMARK                         _______ _______ _______ _____ _____    ______ ____
ROOT
ATOM      1  C5  UNL     1     148.155 163.460 168.038  0.00  0.00    +0.000 C 
ATOM      2  C6  UNL     1     149.583 163.905 167.988  0.00  0.00    +0.000 C 
ATOM      3  C7  UNL     1     150.403 162.974 168.794  0.00  0.00    +0.000 C 
ATOM      4  C8  UNL     1     149.976 161.794 169.213  0.00  0.00    +0.000 C 
ATOM      5  O2  UNL     1     148.691 161.356 168.904  0.00  0.00    +0.000 OA
ATOM      6  C9  UNL     1     148.025 161.972 167.820  0.00  0.00    +0.000 C 
ENDROOT
BRANCH   1   9
ATOM      7  C4  UNL     1     146.211 165.030 167.624  0.00  0.00    +0.000 C 
ATOM      8  O1  UNL     1     146.005 165.057 168.868  0.00  0.00    +0.000 OA
ATOM      9  N1  UNL     1     147.297 164.229 167.160  0.00  0.00    +0.000 N 
ATOM     10  H8  UNL     1     147.449 164.222 166.117  0.00  0.00    +0.000 HD
BRANCH   7  12
ATOM     11  C1  UNL     1     144.369 164.890 165.965  0.00  0.00    +0.000 C 
ATOM     12  C2  UNL     1     145.350 165.805 166.687  0.00  0.00    +0.000 C 
ATOM     13  C3  UNL     1     146.161 166.603 165.708  0.00  0.00    +0.000 C 
ENDBRANCH   7  12
ENDBRANCH   1   9
BRANCH   2  14
ATOM     14  N2  UNL     1     149.648 165.268 168.526  0.00  0.00    +0.000 NA
ATOM     15  N3  UNL     1     149.265 165.512 169.668  0.00  0.00    +0.000 NA
ATOM     16  N4  UNL     1     148.815 165.604 170.821  0.00  0.00    +0.000 NA
ENDBRANCH   2  14
BRANCH   4  17
ATOM     17  C13 UNL     1     150.890 160.958 170.009  0.00  0.00    +0.000 C 
ATOM     18  O7  UNL     1     152.081 161.324 170.086  0.00  0.00    +0.000 OA
BRANCH  17  19
ATOM     19  O6  UNL     1     150.490 159.812 170.658  0.00  0.00    +0.000 OA
ATOM     20  H20 UNL     1     150.822 158.872 170.393  0.00  0.00    +0.000 HD
ENDBRANCH  17  19
ENDBRANCH   4  17
BRANCH   6  21
ATOM     21  C10 UNL     1     146.566 161.625 167.782  0.00  0.00    +0.000 C 
BRANCH  21  22
ATOM     22  O3  UNL     1     145.912 161.924 168.980  0.00  0.00    +0.000 OA
ATOM     23  H14 UNL     1     146.502 162.243 169.683  0.00  0.00    +0.000 HD
ENDBRANCH  21  22
BRANCH  21  24
ATOM     24  C11 UNL     1     146.274 160.232 167.315  0.00  0.00    +0.000 C 
BRANCH  24  25
ATOM     25  O4  UNL     1     147.438 159.775 166.662  0.00  0.00    +0.000 OA
ATOM     26  H16 UNL     1     147.369 159.901 165.682  0.00  0.00    +0.000 HD
ENDBRANCH  24  25
BRANCH  24  27
ATOM     27  C12 UNL     1     145.128 160.190 166.333  0.00  0.00    +0.000 C 
BRANCH  27  28
ATOM     28  O5  UNL     1     144.007 160.686 167.000  0.00  0.00    +0.000 OA
ATOM     29  H19 UNL     1     143.912 161.662 166.865  0.00  0.00    +0.000 HD
ENDBRANCH  27  28
ENDBRANCH  24  27
ENDBRANCH  21  24
ENDBRANCH   6  21
TORSDOF 11
ENDMDL
