MODEL 1
REMARK VINA RESULT:      -7.0      0.000      0.000
REMARK  Name = ./3D_structures\o26_MMV1634385_3D.pdb
REMARK  4 active torsions:
REMARK  status: ('A' for Active; 'I' for Inactive)
REMARK    1  A    between atoms: C1_2  and  C2_5
REMARK    2  A    between atoms: N1_9  and  C6_10
REMARK    3  A    between atoms: C16_20  and  C17_22
REMARK    4  A    between atoms: C20_25  and  N3_26
REMARK                            x       y       z     vdW  Elec       q    Type
REMARK                         _______ _______ _______ _____ _____    ______ ____
ROOT
ATOM      1  C2  UNL     1     158.093 155.512 163.303  0.00  0.00    +0.000 A 
ATOM      2  C3  UNL     1     159.338 156.006 163.552  0.00  0.00    +0.000 A 
ATOM      3  C4  UNL     1     159.587 156.684 164.745  0.00  0.00    +0.000 A 
ATOM      4  C5  UNL     1     158.630 156.897 165.714  0.00  0.00    +0.000 A 
ATOM      5  N1  UNL     1     159.215 157.570 166.766  0.00  0.00    +0.000 N 
ATOM      6  C16 UNL     1     160.462 157.735 166.457  0.00  0.00    +0.000 A 
ATOM      7  N2  UNL     1     160.708 157.189 165.185  0.00  0.00    +0.000 NA
ATOM      8  C23 UNL     1     157.408 156.369 165.403  0.00  0.00    +0.000 A 
ATOM      9  C24 UNL     1     157.102 155.689 164.239  0.00  0.00    +0.000 A 
ENDROOT
BRANCH   5  10
ATOM     10  C6  UNL     1     158.425 158.092 167.831  0.00  0.00    +0.000 C 
ATOM     11  C7  UNL     1     158.019 159.504 167.448  0.00  0.00    +0.000 C 
ATOM     12  C8  UNL     1     157.029 160.134 168.399  0.00  0.00    +0.000 C 
ATOM     13  C9  UNL     1     157.847 160.404 169.669  0.00  0.00    +0.000 C 
ATOM     14  C10 UNL     1     158.414 159.094 170.113  0.00  0.00    +0.000 C 
ATOM     15  C11 UNL     1     159.250 158.363 169.108  0.00  0.00    +0.000 C 
ATOM     16  C12 UNL     1     157.254 158.242 170.545  0.00  0.00    +0.000 C 
ATOM     17  C13 UNL     1     156.416 157.958 169.313  0.00  0.00    +0.000 C 
ATOM     18  C14 UNL     1     157.317 157.242 168.313  0.00  0.00    +0.000 C 
ATOM     19  C15 UNL     1     155.898 159.217 168.694  0.00  0.00    +0.000 C 
ENDBRANCH   5  10
BRANCH   6  20
ATOM     20  C17 UNL     1     161.664 158.242 167.069  0.00  0.00    +0.000 A 
ATOM     21  C18 UNL     1     162.621 157.367 167.496  0.00  0.00    +0.000 A 
ATOM     22  C19 UNL     1     163.880 157.821 167.875  0.00  0.00    +0.000 A 
ATOM     23  C20 UNL     1     164.170 159.175 167.820  0.00  0.00    +0.000 A 
ATOM     24  C21 UNL     1     163.218 160.061 167.404  0.00  0.00    +0.000 A 
ATOM     25  C22 UNL     1     161.960 159.571 167.030  0.00  0.00    +0.000 A 
BRANCH  23  26
ATOM     26  N3  UNL     1     165.523 159.595 168.094  0.00  0.00    +0.000 N 
ATOM     27  H19 UNL     1     166.258 159.082 168.549  0.00  0.00    +0.000 HD
ATOM     28  H20 UNL     1     165.711 160.591 167.747  0.00  0.00    +0.000 HD
ENDBRANCH  23  26
ENDBRANCH   6  20
BRANCH   1  30
ATOM     29  F1  UNL     1     158.553 155.489 161.012  0.00  0.00    +0.000 F 
ATOM     30  C1  UNL     1     157.827 154.857 161.973  0.00  0.00    +0.000 C 
ATOM     31  F2  UNL     1     158.310 153.535 162.192  0.00  0.00    +0.000 F 
ATOM     32  F3  UNL     1     156.487 154.862 161.712  0.00  0.00    +0.000 F 
ENDBRANCH   1  30
TORSDOF 4
ENDMDL
MODEL 2
REMARK VINA RESULT:      -6.9      4.445      7.983
REMARK  Name = ./3D_structures\o26_MMV1634385_3D.pdb
REMARK  4 active torsions:
REMARK  status: ('A' for Active; 'I' for Inactive)
REMARK    1  A    between atoms: C1_2  and  C2_5
REMARK    2  A    between atoms: N1_9  and  C6_10
REMARK    3  A    between atoms: C16_20  and  C17_22
REMARK    4  A    between atoms: C20_25  and  N3_26
REMARK                            x       y       z     vdW  Elec       q    Type
REMARK                         _______ _______ _______ _____ _____    ______ ____
ROOT
ATOM      1  C2  UNL     1     157.417 157.564 167.043  0.00  0.00    +0.000 A 
ATOM      2  C3  UNL     1     156.123 157.159 167.182  0.00  0.00    +0.000 A 
ATOM      3  C4  UNL     1     155.318 157.742 168.159  0.00  0.00    +0.000 A 
ATOM      4  C5  UNL     1     155.756 158.725 169.020  0.00  0.00    +0.000 A 
ATOM      5  N1  UNL     1     154.706 159.094 169.834  0.00  0.00    +0.000 N 
ATOM      6  C16 UNL     1     153.684 158.387 169.470  0.00  0.00    +0.000 A 
ATOM      7  N2  UNL     1     154.057 157.526 168.422  0.00  0.00    +0.000 NA
ATOM      8  C23 UNL     1     157.059 159.089 168.821  0.00  0.00    +0.000 A 
ATOM      9  C24 UNL     1     157.904 158.547 167.870  0.00  0.00    +0.000 A 
ENDROOT
BRANCH   5  10
ATOM     10  C6  UNL     1     154.912 159.957 170.949  0.00  0.00    +0.000 C 
ATOM     11  C7  UNL     1     156.008 159.347 171.803  0.00  0.00    +0.000 C 
ATOM     12  C8  UNL     1     156.466 160.235 172.936  0.00  0.00    +0.000 C 
ATOM     13  C9  UNL     1     155.291 160.222 173.923  0.00  0.00    +0.000 C 
ATOM     14  C10 UNL     1     154.087 160.705 173.179  0.00  0.00    +0.000 C 
ATOM     15  C11 UNL     1     153.728 159.943 171.941  0.00  0.00    +0.000 C 
ATOM     16  C12 UNL     1     154.330 162.151 172.850  0.00  0.00    +0.000 C 
ATOM     17  C13 UNL     1     155.493 162.205 171.878  0.00  0.00    +0.000 C 
ATOM     18  C14 UNL     1     155.090 161.393 170.651  0.00  0.00    +0.000 C 
ATOM     19  C15 UNL     1     156.736 161.619 172.468  0.00  0.00    +0.000 C 
ENDBRANCH   5  10
BRANCH   6  20
ATOM     20  C17 UNL     1     152.279 158.287 169.775  0.00  0.00    +0.000 A 
ATOM     21  C18 UNL     1     151.428 159.266 169.350  0.00  0.00    +0.000 A 
ATOM     22  C19 UNL     1     150.050 159.090 169.425  0.00  0.00    +0.000 A 
ATOM     23  C20 UNL     1     149.532 157.910 169.936  0.00  0.00    +0.000 A 
ATOM     24  C21 UNL     1     150.374 156.928 170.374  0.00  0.00    +0.000 A 
ATOM     25  C22 UNL     1     151.756 157.137 170.285  0.00  0.00    +0.000 A 
BRANCH  23  26
ATOM     26  N3  UNL     1     148.105 157.710 169.877  0.00  0.00    +0.000 N 
ATOM     27  H19 UNL     1     147.479 157.437 170.615  0.00  0.00    +0.000 HD
ATOM     28  H20 UNL     1     147.715 157.888 168.895  0.00  0.00    +0.000 HD
ENDBRANCH  23  26
ENDBRANCH   6  20
BRANCH   1  30
ATOM     29  F1  UNL     1     158.065 155.522 166.107  0.00  0.00    +0.000 F 
ATOM     30  C1  UNL     1     158.291 156.862 166.037  0.00  0.00    +0.000 C 
ATOM     31  F2  UNL     1     157.813 157.395 164.806  0.00  0.00    +0.000 F 
ATOM     32  F3  UNL     1     159.600 157.188 166.249  0.00  0.00    +0.000 F 
ENDBRANCH   1  30
TORSDOF 4
ENDMDL
MODEL 3
REMARK VINA RESULT:      -6.7      5.286      8.519
REMARK  Name = ./3D_structures\o26_MMV1634385_3D.pdb
REMARK  4 active torsions:
REMARK  status: ('A' for Active; 'I' for Inactive)
REMARK    1  A    between atoms: C1_2  and  C2_5
REMARK    2  A    between atoms: N1_9  and  C6_10
REMARK    3  A    between atoms: C16_20  and  C17_22
REMARK    4  A    between atoms: C20_25  and  N3_26
REMARK                            x       y       z     vdW  Elec       q    Type
REMARK                         _______ _______ _______ _____ _____    ______ ____
ROOT
ATOM      1  C2  UNL     1     153.600 162.787 164.771  0.00  0.00    +0.000 A 
ATOM      2  C3  UNL     1     152.680 162.306 165.654  0.00  0.00    +0.000 A 
ATOM      3  C4  UNL     1     153.056 161.343 166.589  0.00  0.00    +0.000 A 
ATOM      4  C5  UNL     1     154.330 160.825 166.679  0.00  0.00    +0.000 A 
ATOM      5  N1  UNL     1     154.363 159.921 167.720  0.00  0.00    +0.000 N 
ATOM      6  C16 UNL     1     153.178 159.909 168.242  0.00  0.00    +0.000 A 
ATOM      7  N2  UNL     1     152.344 160.793 167.536  0.00  0.00    +0.000 NA
ATOM      8  C23 UNL     1     155.203 161.356 165.770  0.00  0.00    +0.000 A 
ATOM      9  C24 UNL     1     154.889 162.311 164.822  0.00  0.00    +0.000 A 
ENDROOT
BRANCH   5  10
ATOM     10  C6  UNL     1     155.501 159.089 167.931  0.00  0.00    +0.000 C 
ATOM     11  C7  UNL     1     155.740 159.014 169.428  0.00  0.00    +0.000 C 
ATOM     12  C8  UNL     1     156.810 158.025 169.827  0.00  0.00    +0.000 C 
ATOM     13  C9  UNL     1     158.118 158.678 169.358  0.00  0.00    +0.000 C 
ATOM     14  C10 UNL     1     157.987 158.919 167.889  0.00  0.00    +0.000 C 
ATOM     15  C11 UNL     1     156.816 159.747 167.459  0.00  0.00    +0.000 C 
ATOM     16  C12 UNL     1     157.942 157.569 167.228  0.00  0.00    +0.000 C 
ATOM     17  C13 UNL     1     156.662 156.890 167.674  0.00  0.00    +0.000 C 
ATOM     18  C14 UNL     1     155.505 157.784 167.239  0.00  0.00    +0.000 C 
ATOM     19  C15 UNL     1     156.616 156.713 169.158  0.00  0.00    +0.000 C 
ENDBRANCH   5  10
BRANCH   6  20
ATOM     20  C17 UNL     1     152.505 159.315 169.369  0.00  0.00    +0.000 A 
ATOM     21  C18 UNL     1     151.907 160.121 170.295  0.00  0.00    +0.000 A 
ATOM     22  C19 UNL     1     151.059 159.586 171.260  0.00  0.00    +0.000 A 
ATOM     23  C20 UNL     1     150.817 158.221 171.285  0.00  0.00    +0.000 A 
ATOM     24  C21 UNL     1     151.419 157.404 170.371  0.00  0.00    +0.000 A 
ATOM     25  C22 UNL     1     152.267 157.975 169.413  0.00  0.00    +0.000 A 
BRANCH  23  26
ATOM     26  N3  UNL     1     149.834 157.720 172.214  0.00  0.00    +0.000 N 
ATOM     27  H19 UNL     1     149.321 156.856 172.177  0.00  0.00    +0.000 HD
ATOM     28  H20 UNL     1     149.668 158.397 173.027  0.00  0.00    +0.000 HD
ENDBRANCH  23  26
ENDBRANCH   6  20
BRANCH   1  30
ATOM     29  F1  UNL     1     151.826 163.578 163.472  0.00  0.00    +0.000 F 
ATOM     30  C1  UNL     1     153.150 163.765 163.718  0.00  0.00    +0.000 C 
ATOM     31  F2  UNL     1     153.378 165.016 164.360  0.00  0.00    +0.000 F 
ATOM     32  F3  UNL     1     153.920 163.631 162.599  0.00  0.00    +0.000 F 
ENDBRANCH   1  30
TORSDOF 4
ENDMDL
MODEL 4
REMARK VINA RESULT:      -6.7      4.309      6.740
REMARK  Name = ./3D_structures\o26_MMV1634385_3D.pdb
REMARK  4 active torsions:
REMARK  status: ('A' for Active; 'I' for Inactive)
REMARK    1  A    between atoms: C1_2  and  C2_5
REMARK    2  A    between atoms: N1_9  and  C6_10
REMARK    3  A    between atoms: C16_20  and  C17_22
REMARK    4  A    between atoms: C20_25  and  N3_26
REMARK                            x       y       z     vdW  Elec       q    Type
REMARK                         _______ _______ _______ _____ _____    ______ ____
ROOT
ATOM      1  C2  UNL     1     161.074 161.728 168.896  0.00  0.00    +0.000 A 
ATOM      2  C3  UNL     1     161.223 160.726 167.984  0.00  0.00    +0.000 A 
ATOM      3  C4  UNL     1     160.118 159.963 167.610  0.00  0.00    +0.000 A 
ATOM      4  C5  UNL     1     158.851 160.156 168.118  0.00  0.00    +0.000 A 
ATOM      5  N1  UNL     1     157.997 159.255 167.518  0.00  0.00    +0.000 N 
ATOM      6  C16 UNL     1     158.706 158.568 166.680  0.00  0.00    +0.000 A 
ATOM      7  N2  UNL     1     160.044 158.998 166.733  0.00  0.00    +0.000 NA
ATOM      8  C23 UNL     1     158.772 161.181 169.019  0.00  0.00    +0.000 A 
ATOM      9  C24 UNL     1     159.831 161.970 169.429  0.00  0.00    +0.000 A 
ENDROOT
BRANCH   5  10
ATOM     10  C6  UNL     1     156.659 159.094 167.983  0.00  0.00    +0.000 C 
ATOM     11  C7  UNL     1     156.646 157.918 168.943  0.00  0.00    +0.000 C 
ATOM     12  C8  UNL     1     155.330 157.727 169.658  0.00  0.00    +0.000 C 
ATOM     13  C9  UNL     1     154.379 157.218 168.567  0.00  0.00    +0.000 C 
ATOM     14  C10 UNL     1     154.372 158.242 167.478  0.00  0.00    +0.000 C 
ATOM     15  C11 UNL     1     155.704 158.582 166.883  0.00  0.00    +0.000 C 
ATOM     16  C12 UNL     1     153.724 159.475 168.044  0.00  0.00    +0.000 C 
ATOM     17  C13 UNL     1     154.635 160.005 169.134  0.00  0.00    +0.000 C 
ATOM     18  C14 UNL     1     155.982 160.307 168.486  0.00  0.00    +0.000 C 
ATOM     19  C15 UNL     1     154.830 159.005 170.228  0.00  0.00    +0.000 C 
ENDBRANCH   5  10
BRANCH   6  20
ATOM     20  C17 UNL     1     158.502 157.560 165.671  0.00  0.00    +0.000 A 
ATOM     21  C18 UNL     1     158.211 156.281 166.050  0.00  0.00    +0.000 A 
ATOM     22  C19 UNL     1     157.784 155.343 165.114  0.00  0.00    +0.000 A 
ATOM     23  C20 UNL     1     157.653 155.708 163.783  0.00  0.00    +0.000 A 
ATOM     24  C21 UNL     1     157.952 156.981 163.391  0.00  0.00    +0.000 A 
ATOM     25  C22 UNL     1     158.379 157.901 164.359  0.00  0.00    +0.000 A 
BRANCH  23  26
ATOM     26  N3  UNL     1     157.085 154.751 162.866  0.00  0.00    +0.000 N 
ATOM     27  H19 UNL     1     156.271 154.847 162.284  0.00  0.00    +0.000 HD
ATOM     28  H20 UNL     1     157.643 153.837 162.843  0.00  0.00    +0.000 HD
ENDBRANCH  23  26
ENDBRANCH   6  20
BRANCH   1  30
ATOM     29  F1  UNL     1     163.359 161.633 169.382  0.00  0.00    +0.000 F 
ATOM     30  C1  UNL     1     162.297 162.483 169.346  0.00  0.00    +0.000 C 
ATOM     31  F2  UNL     1     162.450 163.446 168.307  0.00  0.00    +0.000 F 
ATOM     32  F3  UNL     1     162.058 163.081 170.550  0.00  0.00    +0.000 F 
ENDBRANCH   1  30
TORSDOF 4
ENDMDL
MODEL 5
REMARK VINA RESULT:      -6.7      5.610      8.070
REMARK  Name = ./3D_structures\o26_MMV1634385_3D.pdb
REMARK  4 active torsions:
REMARK  status: ('A' for Active; 'I' for Inactive)
REMARK    1  A    between atoms: C1_2  and  C2_5
REMARK    2  A    between atoms: N1_9  and  C6_10
REMARK    3  A    between atoms: C16_20  and  C17_22
REMARK    4  A    between atoms: C20_25  and  N3_26
REMARK                            x       y       z     vdW  Elec       q    Type
REMARK                         _______ _______ _______ _____ _____    ______ ____
ROOT
ATOM      1  C2  UNL     1     150.437 161.634 168.784  0.00  0.00    +0.000 A 
ATOM      2  C3  UNL     1     151.080 161.218 167.657  0.00  0.00    +0.000 A 
ATOM      3  C4  UNL     1     152.332 160.613 167.759  0.00  0.00    +0.000 A 
ATOM      4  C5  UNL     1     152.983 160.406 168.956  0.00  0.00    +0.000 A 
ATOM      5  N1  UNL     1     154.177 159.765 168.700  0.00  0.00    +0.000 N 
ATOM      6  C16 UNL     1     154.234 159.578 167.420  0.00  0.00    +0.000 A 
ATOM      7  N2  UNL     1     153.083 160.113 166.814  0.00  0.00    +0.000 NA
ATOM      8  C23 UNL     1     152.279 160.839 170.045  0.00  0.00    +0.000 A 
ATOM      9  C24 UNL     1     151.038 161.445 170.006  0.00  0.00    +0.000 A 
ENDROOT
BRANCH   5  10
ATOM     10  C6  UNL     1     155.149 159.589 169.728  0.00  0.00    +0.000 C 
ATOM     11  C7  UNL     1     156.485 160.057 169.179  0.00  0.00    +0.000 C 
ATOM     12  C8  UNL     1     157.588 160.097 170.209  0.00  0.00    +0.000 C 
ATOM     13  C9  UNL     1     157.894 158.620 170.491  0.00  0.00    +0.000 C 
ATOM     14  C10 UNL     1     156.618 157.987 170.946  0.00  0.00    +0.000 C 
ATOM     15  C11 UNL     1     155.455 158.103 170.010  0.00  0.00    +0.000 C 
ATOM     16  C12 UNL     1     156.279 158.597 172.278  0.00  0.00    +0.000 C 
ATOM     17  C13 UNL     1     155.977 160.064 172.039  0.00  0.00    +0.000 C 
ATOM     18  C14 UNL     1     154.808 160.128 171.060  0.00  0.00    +0.000 C 
ATOM     19  C15 UNL     1     157.149 160.783 171.451  0.00  0.00    +0.000 C 
ENDBRANCH   5  10
BRANCH   6  20
ATOM     20  C17 UNL     1     155.090 158.921 166.465  0.00  0.00    +0.000 A 
ATOM     21  C18 UNL     1     155.864 159.672 165.628  0.00  0.00    +0.000 A 
ATOM     22  C19 UNL     1     156.863 159.079 164.862  0.00  0.00    +0.000 A 
ATOM     23  C20 UNL     1     157.077 157.712 164.946  0.00  0.00    +0.000 A 
ATOM     24  C21 UNL     1     156.302 156.949 165.772  0.00  0.00    +0.000 A 
ATOM     25  C22 UNL     1     155.305 157.577 166.529  0.00  0.00    +0.000 A 
BRANCH  23  26
ATOM     26  N3  UNL     1     158.203 157.153 164.239  0.00  0.00    +0.000 N 
ATOM     27  H19 UNL     1     158.376 157.136 163.248  0.00  0.00    +0.000 HD
ATOM     28  H20 UNL     1     158.916 156.712 164.905  0.00  0.00    +0.000 HD
ENDBRANCH  23  26
ENDBRANCH   6  20
BRANCH   1  30
ATOM     29  F1  UNL     1     148.909 163.114 169.754  0.00  0.00    +0.000 F 
ATOM     30  C1  UNL     1     149.125 162.359 168.643  0.00  0.00    +0.000 C 
ATOM     31  F2  UNL     1     149.363 163.183 167.505  0.00  0.00    +0.000 F 
ATOM     32  F3  UNL     1     148.121 161.464 168.410  0.00  0.00    +0.000 F 
ENDBRANCH   1  30
TORSDOF 4
ENDMDL
MODEL 6
REMARK VINA RESULT:      -6.7      1.652      2.450
REMARK  Name = ./3D_structures\o26_MMV1634385_3D.pdb
REMARK  4 active torsions:
REMARK  status: ('A' for Active; 'I' for Inactive)
REMARK    1  A    between atoms: C1_2  and  C2_5
REMARK    2  A    between atoms: N1_9  and  C6_10
REMARK    3  A    between atoms: C16_20  and  C17_22
REMARK    4  A    between atoms: C20_25  and  N3_26
REMARK                            x       y       z     vdW  Elec       q    Type
REMARK                         _______ _______ _______ _____ _____    ______ ____
ROOT
ATOM      1  C2  UNL     1     158.059 155.871 164.321  0.00  0.00    +0.000 A 
ATOM      2  C3  UNL     1     159.030 156.809 164.515  0.00  0.00    +0.000 A 
ATOM      3  C4  UNL     1     159.027 157.576 165.679  0.00  0.00    +0.000 A 
ATOM      4  C5  UNL     1     158.080 157.449 166.672  0.00  0.00    +0.000 A 
ATOM      5  N1  UNL     1     158.388 158.333 167.685  0.00  0.00    +0.000 N 
ATOM      6  C16 UNL     1     159.473 158.945 167.331  0.00  0.00    +0.000 A 
ATOM      7  N2  UNL     1     159.882 158.483 166.067  0.00  0.00    +0.000 NA
ATOM      8  C23 UNL     1     157.143 156.488 166.418  0.00  0.00    +0.000 A 
ATOM      9  C24 UNL     1     157.094 155.698 165.284  0.00  0.00    +0.000 A 
ENDROOT
BRANCH   5  10
ATOM     10  C6  UNL     1     157.480 158.559 168.760  0.00  0.00    +0.000 C 
ATOM     11  C7  UNL     1     158.255 158.395 170.055  0.00  0.00    +0.000 C 
ATOM     12  C8  UNL     1     157.472 158.775 171.289  0.00  0.00    +0.000 C 
ATOM     13  C9  UNL     1     156.430 157.656 171.432  0.00  0.00    +0.000 C 
ATOM     14  C10 UNL     1     155.644 157.623 170.161  0.00  0.00    +0.000 C 
ATOM     15  C11 UNL     1     156.433 157.433 168.903  0.00  0.00    +0.000 C 
ATOM     16  C12 UNL     1     154.862 158.905 170.099  0.00  0.00    +0.000 C 
ATOM     17  C13 UNL     1     155.862 160.038 169.963  0.00  0.00    +0.000 C 
ATOM     18  C14 UNL     1     156.657 159.784 168.686  0.00  0.00    +0.000 C 
ATOM     19  C15 UNL     1     156.801 160.090 171.125  0.00  0.00    +0.000 C 
ENDBRANCH   5  10
BRANCH   6  20
ATOM     20  C17 UNL     1     160.406 159.892 167.888  0.00  0.00    +0.000 A 
ATOM     21  C18 UNL     1     161.701 159.892 167.455  0.00  0.00    +0.000 A 
ATOM     22  C19 UNL     1     162.563 160.930 167.796  0.00  0.00    +0.000 A 
ATOM     23  C20 UNL     1     162.106 161.976 168.583  0.00  0.00    +0.000 A 
ATOM     24  C21 UNL     1     160.815 161.981 169.029  0.00  0.00    +0.000 A 
ATOM     25  C22 UNL     1     159.974 160.920 168.668  0.00  0.00    +0.000 A 
BRANCH  23  26
ATOM     26  N3  UNL     1     162.986 163.096 168.807  0.00  0.00    +0.000 N 
ATOM     27  H19 UNL     1     163.954 163.193 168.554  0.00  0.00    +0.000 HD
ATOM     28  H20 UNL     1     162.490 163.900 169.312  0.00  0.00    +0.000 HD
ENDBRANCH  23  26
ENDBRANCH   6  20
BRANCH   1  30
ATOM     29  F1  UNL     1     159.310 154.827 162.646  0.00  0.00    +0.000 F 
ATOM     30  C1  UNL     1     158.034 155.114 163.020  0.00  0.00    +0.000 C 
ATOM     31  F2  UNL     1     157.330 153.930 163.380  0.00  0.00    +0.000 F 
ATOM     32  F3  UNL     1     157.356 155.831 162.076  0.00  0.00    +0.000 F 
ENDBRANCH   1  30
TORSDOF 4
ENDMDL
MODEL 7
REMARK VINA RESULT:      -6.6      3.898      7.041
REMARK  Name = ./3D_structures\o26_MMV1634385_3D.pdb
REMARK  4 active torsions:
REMARK  status: ('A' for Active; 'I' for Inactive)
REMARK    1  A    between atoms: C1_2  and  C2_5
REMARK    2  A    between atoms: N1_9  and  C6_10
REMARK    3  A    between atoms: C16_20  and  C17_22
REMARK    4  A    between atoms: C20_25  and  N3_26
REMARK                            x       y       z     vdW  Elec       q    Type
REMARK                         _______ _______ _______ _____ _____    ______ ____
ROOT
ATOM      1  C2  UNL     1     157.083 156.717 165.865  0.00  0.00    +0.000 A 
ATOM      2  C3  UNL     1     155.836 157.219 165.644  0.00  0.00    +0.000 A 
ATOM      3  C4  UNL     1     155.256 158.069 166.585  0.00  0.00    +0.000 A 
ATOM      4  C5  UNL     1     155.876 158.442 167.758  0.00  0.00    +0.000 A 
ATOM      5  N1  UNL     1     155.042 159.304 168.439  0.00  0.00    +0.000 N 
ATOM      6  C16 UNL     1     153.985 159.458 167.707  0.00  0.00    +0.000 A 
ATOM      7  N2  UNL     1     154.104 158.680 166.541  0.00  0.00    +0.000 NA
ATOM      8  C23 UNL     1     157.126 157.910 167.912  0.00  0.00    +0.000 A 
ATOM      9  C24 UNL     1     157.751 157.063 167.016  0.00  0.00    +0.000 A 
ENDROOT
BRANCH   5  10
ATOM     10  C6  UNL     1     155.338 159.706 169.774  0.00  0.00    +0.000 C 
ATOM     11  C7  UNL     1     155.636 161.195 169.747  0.00  0.00    +0.000 C 
ATOM     12  C8  UNL     1     155.798 161.811 171.116  0.00  0.00    +0.000 C 
ATOM     13  C9  UNL     1     157.139 161.258 171.621  0.00  0.00    +0.000 C 
ATOM     14  C10 UNL     1     157.034 159.766 171.599  0.00  0.00    +0.000 C 
ATOM     15  C11 UNL     1     156.686 159.149 170.280  0.00  0.00    +0.000 C 
ATOM     16  C12 UNL     1     156.016 159.386 172.638  0.00  0.00    +0.000 C 
ATOM     17  C13 UNL     1     154.675 159.923 172.175  0.00  0.00    +0.000 C 
ATOM     18  C14 UNL     1     154.382 159.289 170.820  0.00  0.00    +0.000 C 
ATOM     19  C15 UNL     1     154.695 161.411 172.028  0.00  0.00    +0.000 C 
ENDBRANCH   5  10
BRANCH   6  20
ATOM     20  C17 UNL     1     152.778 160.245 167.711  0.00  0.00    +0.000 A 
ATOM     21  C18 UNL     1     152.450 160.977 166.607  0.00  0.00    +0.000 A 
ATOM     22  C19 UNL     1     151.191 161.558 166.489  0.00  0.00    +0.000 A 
ATOM     23  C20 UNL     1     150.258 161.394 167.500  0.00  0.00    +0.000 A 
ATOM     24  C21 UNL     1     150.579 160.673 168.614  0.00  0.00    +0.000 A 
ATOM     25  C22 UNL     1     151.855 160.101 168.702  0.00  0.00    +0.000 A 
BRANCH  23  26
ATOM     26  N3  UNL     1     148.924 161.898 167.286  0.00  0.00    +0.000 N 
ATOM     27  H19 UNL     1     148.491 162.716 167.681  0.00  0.00    +0.000 HD
ATOM     28  H20 UNL     1     148.366 161.282 166.611  0.00  0.00    +0.000 HD
ENDBRANCH  23  26
ENDBRANCH   6  20
BRANCH   1  30
ATOM     29  F1  UNL     1     157.615 156.283 163.630  0.00  0.00    +0.000 F 
ATOM     30  C1  UNL     1     157.654 155.736 164.875  0.00  0.00    +0.000 C 
ATOM     31  F2  UNL     1     158.996 155.601 165.332  0.00  0.00    +0.000 F 
ATOM     32  F3  UNL     1     156.979 154.551 164.952  0.00  0.00    +0.000 F 
ENDBRANCH   1  30
TORSDOF 4
ENDMDL
MODEL 8
REMARK VINA RESULT:      -6.6      3.495      6.450
REMARK  Name = ./3D_structures\o26_MMV1634385_3D.pdb
REMARK  4 active torsions:
REMARK  status: ('A' for Active; 'I' for Inactive)
REMARK    1  A    between atoms: C1_2  and  C2_5
REMARK    2  A    between atoms: N1_9  and  C6_10
REMARK    3  A    between atoms: C16_20  and  C17_22
REMARK    4  A    between atoms: C20_25  and  N3_26
REMARK                            x       y       z     vdW  Elec       q    Type
REMARK                         _______ _______ _______ _____ _____    ______ ____
ROOT
ATOM      1  C2  UNL     1     157.643 156.020 165.331  0.00  0.00    +0.000 A 
ATOM      2  C3  UNL     1     156.347 156.427 165.225  0.00  0.00    +0.000 A 
ATOM      3  C4  UNL     1     155.829 157.330 166.152  0.00  0.00    +0.000 A 
ATOM      4  C5  UNL     1     156.558 157.848 167.201  0.00  0.00    +0.000 A 
ATOM      5  N1  UNL     1     155.755 158.722 167.902  0.00  0.00    +0.000 N 
ATOM      6  C16 UNL     1     154.610 158.746 167.297  0.00  0.00    +0.000 A 
ATOM      7  N2  UNL     1     154.640 157.869 166.199  0.00  0.00    +0.000 NA
ATOM      8  C23 UNL     1     157.850 157.403 167.243  0.00  0.00    +0.000 A 
ATOM      9  C24 UNL     1     158.419 156.511 166.353  0.00  0.00    +0.000 A 
ENDROOT
BRANCH   5  10
ATOM     10  C6  UNL     1     156.180 159.267 169.149  0.00  0.00    +0.000 C 
ATOM     11  C7  UNL     1     155.643 158.367 170.247  0.00  0.00    +0.000 C 
ATOM     12  C8  UNL     1     156.155 158.713 171.625  0.00  0.00    +0.000 C 
ATOM     13  C9  UNL     1     155.453 160.035 171.967  0.00  0.00    +0.000 C 
ATOM     14  C10 UNL     1     155.807 161.010 170.890  0.00  0.00    +0.000 C 
ATOM     15  C11 UNL     1     155.473 160.596 169.491  0.00  0.00    +0.000 C 
ATOM     16  C12 UNL     1     157.280 161.283 171.017  0.00  0.00    +0.000 C 
ATOM     17  C13 UNL     1     158.008 159.993 170.692  0.00  0.00    +0.000 C 
ATOM     18  C14 UNL     1     157.614 159.600 169.272  0.00  0.00    +0.000 C 
ATOM     19  C15 UNL     1     157.629 158.891 171.629  0.00  0.00    +0.000 C 
ENDBRANCH   5  10
BRANCH   6  20
ATOM     20  C17 UNL     1     153.362 159.461 167.383  0.00  0.00    +0.000 A 
ATOM     21  C18 UNL     1     152.609 159.363 168.518  0.00  0.00    +0.000 A 
ATOM     22  C19 UNL     1     151.526 160.212 168.726  0.00  0.00    +0.000 A 
ATOM     23  C20 UNL     1     151.204 161.167 167.774  0.00  0.00    +0.000 A 
ATOM     24  C21 UNL     1     151.944 161.267 166.631  0.00  0.00    +0.000 A 
ATOM     25  C22 UNL     1     153.028 160.397 166.452  0.00  0.00    +0.000 A 
BRANCH  23  26
ATOM     26  N3  UNL     1     150.160 162.113 168.082  0.00  0.00    +0.000 N 
ATOM     27  H19 UNL     1     150.022 163.037 167.710  0.00  0.00    +0.000 HD
ATOM     28  H20 UNL     1     149.471 161.728 168.806  0.00  0.00    +0.000 HD
ENDBRANCH  23  26
ENDBRANCH   6  20
BRANCH   1  30
ATOM     29  F1  UNL     1     159.349 154.506 164.816  0.00  0.00    +0.000 F 
ATOM     30  C1  UNL     1     158.156 154.982 164.367  0.00  0.00    +0.000 C 
ATOM     31  F2  UNL     1     157.146 153.980 164.446  0.00  0.00    +0.000 F 
ATOM     32  F3  UNL     1     158.237 155.512 163.112  0.00  0.00    +0.000 F 
ENDBRANCH   1  30
TORSDOF 4
ENDMDL
MODEL 9
REMARK VINA RESULT:      -6.6      3.310      5.854
REMARK  Name = ./3D_structures\o26_MMV1634385_3D.pdb
REMARK  4 active torsions:
REMARK  status: ('A' for Active; 'I' for Inactive)
REMARK    1  A    between atoms: C1_2  and  C2_5
REMARK    2  A    between atoms: N1_9  and  C6_10
REMARK    3  A    between atoms: C16_20  and  C17_22
REMARK    4  A    between atoms: C20_25  and  N3_26
REMARK                            x       y       z     vdW  Elec       q    Type
REMARK                         _______ _______ _______ _____ _____    ______ ____
ROOT
ATOM      1  C2  UNL     1     161.337 157.889 166.180  0.00  0.00    +0.000 A 
ATOM      2  C3  UNL     1     160.263 158.183 165.394  0.00  0.00    +0.000 A 
ATOM      3  C4  UNL     1     159.055 158.553 165.983  0.00  0.00    +0.000 A 
ATOM      4  C5  UNL     1     158.867 158.640 167.345  0.00  0.00    +0.000 A 
ATOM      5  N1  UNL     1     157.574 159.055 167.583  0.00  0.00    +0.000 N 
ATOM      6  C16 UNL     1     157.019 159.230 166.427  0.00  0.00    +0.000 A 
ATOM      7  N2  UNL     1     157.937 158.911 165.411  0.00  0.00    +0.000 NA
ATOM      8  C23 UNL     1     159.985 158.339 168.073  0.00  0.00    +0.000 A 
ATOM      9  C24 UNL     1     161.207 157.966 167.547  0.00  0.00    +0.000 A 
ENDROOT
BRANCH   5  10
ATOM     10  C6  UNL     1     157.036 159.053 168.903  0.00  0.00    +0.000 C 
ATOM     11  C7  UNL     1     156.761 160.496 169.287  0.00  0.00    +0.000 C 
ATOM     12  C8  UNL     1     156.023 160.651 170.595  0.00  0.00    +0.000 C 
ATOM     13  C9  UNL     1     157.060 160.263 171.659  0.00  0.00    +0.000 C 
ATOM     14  C10 UNL     1     157.515 158.875 171.342  0.00  0.00    +0.000 C 
ATOM     15  C11 UNL     1     158.080 158.663 169.972  0.00  0.00    +0.000 C 
ATOM     16  C12 UNL     1     156.338 157.968 171.568  0.00  0.00    +0.000 C 
ATOM     17  C13 UNL     1     155.286 158.327 170.535  0.00  0.00    +0.000 C 
ATOM     18  C14 UNL     1     155.918 158.123 169.162  0.00  0.00    +0.000 C 
ATOM     19  C15 UNL     1     154.844 159.750 170.666  0.00  0.00    +0.000 C 
ENDBRANCH   5  10
BRANCH   6  20
ATOM     20  C17 UNL     1     155.774 159.724 165.894  0.00  0.00    +0.000 A 
ATOM     21  C18 UNL     1     154.636 158.988 166.056  0.00  0.00    +0.000 A 
ATOM     22  C19 UNL     1     153.390 159.534 165.762  0.00  0.00    +0.000 A 
ATOM     23  C20 UNL     1     153.300 160.838 165.300  0.00  0.00    +0.000 A 
ATOM     24  C21 UNL     1     154.433 161.580 165.125  0.00  0.00    +0.000 A 
ATOM     25  C22 UNL     1     155.671 161.000 165.429  0.00  0.00    +0.000 A 
BRANCH  23  26
ATOM     26  N3  UNL     1     151.988 161.413 165.132  0.00  0.00    +0.000 N 
ATOM     27  H19 UNL     1     151.636 161.955 164.362  0.00  0.00    +0.000 HD
ATOM     28  H20 UNL     1     151.349 161.205 165.966  0.00  0.00    +0.000 HD
ENDBRANCH  23  26
ENDBRANCH   6  20
BRANCH   1  30
ATOM     29  F1  UNL     1     163.531 158.407 165.563  0.00  0.00    +0.000 F 
ATOM     30  C1  UNL     1     162.605 157.411 165.524  0.00  0.00    +0.000 C 
ATOM     31  F2  UNL     1     162.986 156.328 166.368  0.00  0.00    +0.000 F 
ATOM     32  F3  UNL     1     162.341 156.985 164.254  0.00  0.00    +0.000 F 
ENDBRANCH   1  30
TORSDOF 4
ENDMDL
