MODEL 1
REMARK VINA RESULT:      -5.6      0.000      0.000
REMARK  Name = ./3D_structures\o28_MMV688991_3D.pdb
REMARK  5 active torsions:
REMARK  status: ('A' for Active; 'I' for Inactive)
REMARK    1  A    between atoms: C3_5  and  N2_6
REMARK    2  A    between atoms: C4_10  and  C5_12
REMARK    3  A    between atoms: C6_13  and  O4_14
REMARK    4  A    between atoms: O4_14  and  C7_15
REMARK    5  A    between atoms: C7_15  and  C8_17
REMARK                            x       y       z     vdW  Elec       q    Type
REMARK                         _______ _______ _______ _____ _____    ______ ____
ROOT
ATOM      1  S1  UNL     1     144.962 163.975 165.348  0.00  0.00    +0.000 S 
ATOM      2  C1  UNL     1     145.859 162.928 166.612  0.00  0.00    +0.000 A 
ATOM      3  N1  UNL     1     146.250 163.792 167.369  0.00  0.00    +0.000 NA
ATOM      4  C2  UNL     1     146.068 165.079 167.279  0.00  0.00    +0.000 A 
ATOM      5  C3  UNL     1     145.338 165.514 166.183  0.00  0.00    +0.000 A 
ATOM      6  N3  UNL     1     145.894 161.508 166.448  0.00  0.00    +0.000 N 
ATOM      7  C4  UNL     1     146.557 160.676 167.373  0.00  0.00    +0.000 C 
ATOM      8  O3  UNL     1     147.105 161.332 168.351  0.00  0.00    +0.000 OA
ATOM      9  H2  UNL     1     145.421 161.108 165.631  0.00  0.00    +0.000 HD
ENDROOT
BRANCH   7  10
ATOM     10  C5  UNL     1     146.666 159.249 167.319  0.00  0.00    +0.000 A 
ATOM     11  C6  UNL     1     146.607 158.534 166.180  0.00  0.00    +0.000 A 
ATOM     12  C9  UNL     1     146.688 157.145 166.243  0.00  0.00    +0.000 A 
ATOM     13  C10 UNL     1     146.827 156.492 167.432  0.00  0.00    +0.000 A 
ATOM     14  C11 UNL     1     146.889 157.212 168.593  0.00  0.00    +0.000 A 
ATOM     15  C12 UNL     1     146.810 158.583 168.541  0.00  0.00    +0.000 A 
BRANCH  11  16
ATOM     16  O4  UNL     1     146.473 159.045 164.902  0.00  0.00    +0.000 OA
BRANCH  16  17
ATOM     17  C7  UNL     1     145.247 158.996 164.230  0.00  0.00    +0.000 C 
ATOM     18  O5  UNL     1     144.224 159.269 164.910  0.00  0.00    +0.000 OA
ATOM     19  C8  UNL     1     145.105 158.650 162.810  0.00  0.00    +0.000 C 
ENDBRANCH  16  17
ENDBRANCH  11  16
ENDBRANCH   7  10
BRANCH   5  20
ATOM     20  N2  UNL     1     144.955 166.800 165.775  0.00  0.00    +0.000 N 
ATOM     21  O1  UNL     1     145.846 167.843 165.790  0.00  0.00    +0.000 OA
ATOM     22  O2  UNL     1     143.773 166.937 165.403  0.00  0.00    +0.000 OA
ENDBRANCH   5  20
TORSDOF 4
ENDMDL
MODEL 2
REMARK VINA RESULT:      -5.5      2.836      3.753
REMARK  Name = ./3D_structures\o28_MMV688991_3D.pdb
REMARK  5 active torsions:
REMARK  status: ('A' for Active; 'I' for Inactive)
REMARK    1  A    between atoms: C3_5  and  N2_6
REMARK    2  A    between atoms: C4_10  and  C5_12
REMARK    3  A    between atoms: C6_13  and  O4_14
REMARK    4  A    between atoms: O4_14  and  C7_15
REMARK    5  A    between atoms: C7_15  and  C8_17
REMARK                            x       y       z     vdW  Elec       q    Type
REMARK                         _______ _______ _______ _____ _____    ______ ____
ROOT
ATOM      1  S1  UNL     1     145.590 165.202 167.181  0.00  0.00    +0.000 S 
ATOM      2  C1  UNL     1     147.396 164.715 167.163  0.00  0.00    +0.000 A 
ATOM      3  N1  UNL     1     147.849 165.594 166.461  0.00  0.00    +0.000 NA
ATOM      4  C2  UNL     1     147.211 166.581 165.899  0.00  0.00    +0.000 A 
ATOM      5  C3  UNL     1     145.844 166.632 166.133  0.00  0.00    +0.000 A 
ATOM      6  N3  UNL     1     147.816 163.556 167.888  0.00  0.00    +0.000 N 
ATOM      7  C4  UNL     1     149.166 163.148 167.906  0.00  0.00    +0.000 C 
ATOM      8  O3  UNL     1     149.945 163.924 167.214  0.00  0.00    +0.000 OA
ATOM      9  H2  UNL     1     147.103 163.025 168.398  0.00  0.00    +0.000 HD
ENDROOT
BRANCH   7  10
ATOM     10  C5  UNL     1     149.709 162.011 168.586  0.00  0.00    +0.000 A 
ATOM     11  C6  UNL     1     149.446 160.735 168.247  0.00  0.00    +0.000 A 
ATOM     12  C9  UNL     1     149.999 159.702 168.999  0.00  0.00    +0.000 A 
ATOM     13  C10 UNL     1     150.802 159.953 170.073  0.00  0.00    +0.000 A 
ATOM     14  C11 UNL     1     151.075 161.246 170.423  0.00  0.00    +0.000 A 
ATOM     15  C12 UNL     1     150.534 162.273 169.687  0.00  0.00    +0.000 A 
BRANCH  11  16
ATOM     16  O4  UNL     1     148.658 160.320 167.189  0.00  0.00    +0.000 OA
BRANCH  16  17
ATOM     17  C7  UNL     1     147.297 160.048 167.366  0.00  0.00    +0.000 C 
ATOM     18  O5  UNL     1     146.497 160.965 167.047  0.00  0.00    +0.000 OA
ATOM     19  C8  UNL     1     146.777 158.779 167.890  0.00  0.00    +0.000 C 
ENDBRANCH  16  17
ENDBRANCH  11  16
ENDBRANCH   7  10
BRANCH   5  20
ATOM     20  N2  UNL     1     144.861 167.534 165.699  0.00  0.00    +0.000 N 
ATOM     21  O1  UNL     1     145.037 168.888 165.826  0.00  0.00    +0.000 OA
ATOM     22  O2  UNL     1     143.834 167.037 165.198  0.00  0.00    +0.000 OA
ENDBRANCH   5  20
TORSDOF 4
ENDMDL
MODEL 3
REMARK VINA RESULT:      -5.5      3.816      4.750
REMARK  Name = ./3D_structures\o28_MMV688991_3D.pdb
REMARK  5 active torsions:
REMARK  status: ('A' for Active; 'I' for Inactive)
REMARK    1  A    between atoms: C3_5  and  N2_6
REMARK    2  A    between atoms: C4_10  and  C5_12
REMARK    3  A    between atoms: C6_13  and  O4_14
REMARK    4  A    between atoms: O4_14  and  C7_15
REMARK    5  A    between atoms: C7_15  and  C8_17
REMARK                            x       y       z     vdW  Elec       q    Type
REMARK                         _______ _______ _______ _____ _____    ______ ____
ROOT
ATOM      1  S1  UNL     1     147.818 165.606 166.847  0.00  0.00    +0.000 S 
ATOM      2  C1  UNL     1     147.804 163.743 167.008  0.00  0.00    +0.000 A 
ATOM      3  N1  UNL     1     146.709 163.495 166.547  0.00  0.00    +0.000 NA
ATOM      4  C2  UNL     1     145.826 164.334 166.083  0.00  0.00    +0.000 A 
ATOM      5  C3  UNL     1     146.182 165.674 166.121  0.00  0.00    +0.000 A 
ATOM      6  N3  UNL     1     148.939 163.079 167.568  0.00  0.00    +0.000 N 
ATOM      7  C4  UNL     1     148.977 161.676 167.710  0.00  0.00    +0.000 C 
ATOM      8  O3  UNL     1     147.899 161.090 167.284  0.00  0.00    +0.000 OA
ATOM      9  H2  UNL     1     149.732 163.656 167.866  0.00  0.00    +0.000 HD
ENDROOT
BRANCH   7  10
ATOM     10  C5  UNL     1     150.048 160.898 168.255  0.00  0.00    +0.000 A 
ATOM     11  C6  UNL     1     151.351 161.140 168.017  0.00  0.00    +0.000 A 
ATOM     12  C9  UNL     1     152.312 160.298 168.570  0.00  0.00    +0.000 A 
ATOM     13  C10 UNL     1     151.965 159.232 169.347  0.00  0.00    +0.000 A 
ATOM     14  C11 UNL     1     150.643 158.981 169.594  0.00  0.00    +0.000 A 
ATOM     15  C12 UNL     1     149.687 159.806 169.053  0.00  0.00    +0.000 A 
BRANCH  11  16
ATOM     16  O4  UNL     1     151.861 162.177 167.258  0.00  0.00    +0.000 OA
BRANCH  16  17
ATOM     17  C7  UNL     1     152.394 161.945 165.985  0.00  0.00    +0.000 C 
ATOM     18  O5  UNL     1     153.420 162.606 165.679  0.00  0.00    +0.000 OA
ATOM     19  C8  UNL     1     151.826 160.995 165.021  0.00  0.00    +0.000 C 
ENDBRANCH  16  17
ENDBRANCH  11  16
ENDBRANCH   7  10
BRANCH   5  20
ATOM     20  N2  UNL     1     145.496 166.828 165.715  0.00  0.00    +0.000 N 
ATOM     21  O1  UNL     1     144.147 166.801 165.470  0.00  0.00    +0.000 OA
ATOM     22  O2  UNL     1     146.177 167.864 165.592  0.00  0.00    +0.000 OA
ENDBRANCH   5  20
TORSDOF 4
ENDMDL
MODEL 4
REMARK VINA RESULT:      -5.2      5.188      6.115
REMARK  Name = ./3D_structures\o28_MMV688991_3D.pdb
REMARK  5 active torsions:
REMARK  status: ('A' for Active; 'I' for Inactive)
REMARK    1  A    between atoms: C3_5  and  N2_6
REMARK    2  A    between atoms: C4_10  and  C5_12
REMARK    3  A    between atoms: C6_13  and  O4_14
REMARK    4  A    between atoms: O4_14  and  C7_15
REMARK    5  A    between atoms: C7_15  and  C8_17
REMARK                            x       y       z     vdW  Elec       q    Type
REMARK                         _______ _______ _______ _____ _____    ______ ____
ROOT
ATOM      1  S1  UNL     1     148.498 163.290 167.470  0.00  0.00    +0.000 S 
ATOM      2  C1  UNL     1     150.279 162.974 166.995  0.00  0.00    +0.000 A 
ATOM      3  N1  UNL     1     150.547 164.026 166.453  0.00  0.00    +0.000 NA
ATOM      4  C2  UNL     1     149.772 165.059 166.279  0.00  0.00    +0.000 A 
ATOM      5  C3  UNL     1     148.481 164.938 166.771  0.00  0.00    +0.000 A 
ATOM      6  N3  UNL     1     150.880 161.719 167.324  0.00  0.00    +0.000 N 
ATOM      7  C4  UNL     1     152.220 161.433 166.988  0.00  0.00    +0.000 C 
ATOM      8  O3  UNL     1     152.812 162.410 166.371  0.00  0.00    +0.000 OA
ATOM      9  H2  UNL     1     150.306 161.027 167.816  0.00  0.00    +0.000 HD
ENDROOT
BRANCH   7  10
ATOM     10  C5  UNL     1     152.931 160.221 167.257  0.00  0.00    +0.000 A 
ATOM     11  C6  UNL     1     152.901 159.578 168.440  0.00  0.00    +0.000 A 
ATOM     12  C9  UNL     1     153.661 158.423 168.608  0.00  0.00    +0.000 A 
ATOM     13  C10 UNL     1     154.436 157.927 167.601  0.00  0.00    +0.000 A 
ATOM     14  C11 UNL     1     154.470 158.573 166.396  0.00  0.00    +0.000 A 
ATOM     15  C12 UNL     1     153.724 159.714 166.221  0.00  0.00    +0.000 A 
BRANCH  11  16
ATOM     16  O4  UNL     1     152.167 159.950 169.551  0.00  0.00    +0.000 OA
BRANCH  16  17
ATOM     17  C7  UNL     1     150.920 159.375 169.818  0.00  0.00    +0.000 C 
ATOM     18  O5  UNL     1     149.912 160.085 169.572  0.00  0.00    +0.000 OA
ATOM     19  C8  UNL     1     150.743 158.021 170.358  0.00  0.00    +0.000 C 
ENDBRANCH  16  17
ENDBRANCH  11  16
ENDBRANCH   7  10
BRANCH   5  20
ATOM     20  N2  UNL     1     147.397 165.830 166.762  0.00  0.00    +0.000 N 
ATOM     21  O1  UNL     1     147.402 166.942 165.959  0.00  0.00    +0.000 OA
ATOM     22  O2  UNL     1     146.445 165.555 167.516  0.00  0.00    +0.000 OA
ENDBRANCH   5  20
TORSDOF 4
ENDMDL
MODEL 5
REMARK VINA RESULT:      -5.1      1.791      2.910
REMARK  Name = ./3D_structures\o28_MMV688991_3D.pdb
REMARK  5 active torsions:
REMARK  status: ('A' for Active; 'I' for Inactive)
REMARK    1  A    between atoms: C3_5  and  N2_6
REMARK    2  A    between atoms: C4_10  and  C5_12
REMARK    3  A    between atoms: C6_13  and  O4_14
REMARK    4  A    between atoms: O4_14  and  C7_15
REMARK    5  A    between atoms: C7_15  and  C8_17
REMARK                            x       y       z     vdW  Elec       q    Type
REMARK                         _______ _______ _______ _____ _____    ______ ____
ROOT
ATOM      1  S1  UNL     1     145.117 163.959 165.423  0.00  0.00    +0.000 S 
ATOM      2  C1  UNL     1     146.008 162.875 166.660  0.00  0.00    +0.000 A 
ATOM      3  N1  UNL     1     146.539 163.723 167.346  0.00  0.00    +0.000 NA
ATOM      4  C2  UNL     1     146.473 165.018 167.215  0.00  0.00    +0.000 A 
ATOM      5  C3  UNL     1     145.702 165.483 166.160  0.00  0.00    +0.000 A 
ATOM      6  N3  UNL     1     145.895 161.454 166.554  0.00  0.00    +0.000 N 
ATOM      7  C4  UNL     1     146.548 160.593 167.462  0.00  0.00    +0.000 C 
ATOM      8  O3  UNL     1     147.232 161.227 168.366  0.00  0.00    +0.000 OA
ATOM      9  H2  UNL     1     145.322 161.073 165.795  0.00  0.00    +0.000 HD
ENDROOT
BRANCH   7  10
ATOM     10  C5  UNL     1     146.517 159.162 167.461  0.00  0.00    +0.000 A 
ATOM     11  C6  UNL     1     146.161 158.417 168.525  0.00  0.00    +0.000 A 
ATOM     12  C9  UNL     1     146.200 157.029 168.428  0.00  0.00    +0.000 A 
ATOM     13  C10 UNL     1     146.591 156.405 167.280  0.00  0.00    +0.000 A 
ATOM     14  C11 UNL     1     146.952 157.155 166.195  0.00  0.00    +0.000 A 
ATOM     15  C12 UNL     1     146.917 158.526 166.280  0.00  0.00    +0.000 A 
BRANCH  11  16
ATOM     16  O4  UNL     1     145.740 158.897 169.751  0.00  0.00    +0.000 OA
BRANCH  16  17
ATOM     17  C7  UNL     1     144.390 158.858 170.117  0.00  0.00    +0.000 C 
ATOM     18  O5  UNL     1     144.141 158.938 171.348  0.00  0.00    +0.000 OA
ATOM     19  C8  UNL     1     143.285 158.731 169.158  0.00  0.00    +0.000 C 
ENDBRANCH  16  17
ENDBRANCH  11  16
ENDBRANCH   7  10
BRANCH   5  20
ATOM     20  N2  UNL     1     145.412 166.785 165.726  0.00  0.00    +0.000 N 
ATOM     21  O1  UNL     1     144.123 167.173 165.463  0.00  0.00    +0.000 OA
ATOM     22  O2  UNL     1     146.382 167.556 165.597  0.00  0.00    +0.000 OA
ENDBRANCH   5  20
TORSDOF 4
ENDMDL
MODEL 6
REMARK VINA RESULT:      -5.1      1.755      3.345
REMARK  Name = ./3D_structures\o28_MMV688991_3D.pdb
REMARK  5 active torsions:
REMARK  status: ('A' for Active; 'I' for Inactive)
REMARK    1  A    between atoms: C3_5  and  N2_6
REMARK    2  A    between atoms: C4_10  and  C5_12
REMARK    3  A    between atoms: C6_13  and  O4_14
REMARK    4  A    between atoms: O4_14  and  C7_15
REMARK    5  A    between atoms: C7_15  and  C8_17
REMARK                            x       y       z     vdW  Elec       q    Type
REMARK                         _______ _______ _______ _____ _____    ______ ____
ROOT
ATOM      1  S1  UNL     1     146.197 164.685 165.681  0.00  0.00    +0.000 S 
ATOM      2  C1  UNL     1     144.816 163.438 165.490  0.00  0.00    +0.000 A 
ATOM      3  N1  UNL     1     143.856 164.180 165.467  0.00  0.00    +0.000 NA
ATOM      4  C2  UNL     1     143.847 165.481 165.554  0.00  0.00    +0.000 A 
ATOM      5  C3  UNL     1     145.086 166.089 165.692  0.00  0.00    +0.000 A 
ATOM      6  N3  UNL     1     145.134 162.046 165.420  0.00  0.00    +0.000 N 
ATOM      7  C4  UNL     1     144.128 161.067 165.276  0.00  0.00    +0.000 C 
ATOM      8  O3  UNL     1     142.931 161.567 165.215  0.00  0.00    +0.000 OA
ATOM      9  H2  UNL     1     146.121 161.776 165.478  0.00  0.00    +0.000 HD
ENDROOT
BRANCH   7  10
ATOM     10  C5  UNL     1     144.316 159.650 165.198  0.00  0.00    +0.000 A 
ATOM     11  C6  UNL     1     144.959 158.924 166.132  0.00  0.00    +0.000 A 
ATOM     12  C9  UNL     1     145.118 157.554 165.940  0.00  0.00    +0.000 A 
ATOM     13  C10 UNL     1     144.637 156.929 164.827  0.00  0.00    +0.000 A 
ATOM     14  C11 UNL     1     143.981 157.660 163.874  0.00  0.00    +0.000 A 
ATOM     15  C12 UNL     1     143.820 159.012 164.054  0.00  0.00    +0.000 A 
BRANCH  11  16
ATOM     16  O4  UNL     1     145.498 159.406 167.310  0.00  0.00    +0.000 OA
BRANCH  16  17
ATOM     17  C7  UNL     1     146.880 159.561 167.462  0.00  0.00    +0.000 C 
ATOM     18  O5  UNL     1     147.415 160.489 166.802  0.00  0.00    +0.000 OA
ATOM     19  C8  UNL     1     147.708 158.715 168.330  0.00  0.00    +0.000 C 
ENDBRANCH  16  17
ENDBRANCH  11  16
ENDBRANCH   7  10
BRANCH   5  20
ATOM     20  N2  UNL     1     145.448 167.439 165.811  0.00  0.00    +0.000 N 
ATOM     21  O1  UNL     1     144.507 168.407 166.054  0.00  0.00    +0.000 OA
ATOM     22  O2  UNL     1     146.659 167.702 165.686  0.00  0.00    +0.000 OA
ENDBRANCH   5  20
TORSDOF 4
ENDMDL
MODEL 7
REMARK VINA RESULT:      -5.0      6.922      7.855
REMARK  Name = ./3D_structures\o28_MMV688991_3D.pdb
REMARK  5 active torsions:
REMARK  status: ('A' for Active; 'I' for Inactive)
REMARK    1  A    between atoms: C3_5  and  N2_6
REMARK    2  A    between atoms: C4_10  and  C5_12
REMARK    3  A    between atoms: C6_13  and  O4_14
REMARK    4  A    between atoms: O4_14  and  C7_15
REMARK    5  A    between atoms: C7_15  and  C8_17
REMARK                            x       y       z     vdW  Elec       q    Type
REMARK                         _______ _______ _______ _____ _____    ______ ____
ROOT
ATOM      1  S1  UNL     1     150.790 162.513 167.915  0.00  0.00    +0.000 S 
ATOM      2  C1  UNL     1     151.177 160.801 168.562  0.00  0.00    +0.000 A 
ATOM      3  N1  UNL     1     150.066 160.313 168.557  0.00  0.00    +0.000 NA
ATOM      4  C2  UNL     1     148.947 160.871 168.191  0.00  0.00    +0.000 A 
ATOM      5  C3  UNL     1     149.037 162.185 167.756  0.00  0.00    +0.000 A 
ATOM      6  N3  UNL     1     152.527 160.464 168.887  0.00  0.00    +0.000 N 
ATOM      7  C4  UNL     1     152.870 159.186 169.378  0.00  0.00    +0.000 C 
ATOM      8  O3  UNL     1     151.850 158.390 169.490  0.00  0.00    +0.000 OA
ATOM      9  H2  UNL     1     153.247 161.182 168.754  0.00  0.00    +0.000 HD
ENDROOT
BRANCH   7  10
ATOM     10  C5  UNL     1     154.177 158.729 169.742  0.00  0.00    +0.000 A 
ATOM     11  C6  UNL     1     154.866 157.799 169.055  0.00  0.00    +0.000 A 
ATOM     12  C9  UNL     1     156.118 157.399 169.517  0.00  0.00    +0.000 A 
ATOM     13  C10 UNL     1     156.662 157.928 170.650  0.00  0.00    +0.000 A 
ATOM     14  C11 UNL     1     155.968 158.875 171.353  0.00  0.00    +0.000 A 
ATOM     15  C12 UNL     1     154.732 159.276 170.905  0.00  0.00    +0.000 A 
BRANCH  11  16
ATOM     16  O4  UNL     1     154.455 157.174 167.892  0.00  0.00    +0.000 OA
BRANCH  16  17
ATOM     17  C7  UNL     1     154.935 157.585 166.644  0.00  0.00    +0.000 C 
ATOM     18  O5  UNL     1     155.640 156.754 166.015  0.00  0.00    +0.000 OA
ATOM     19  C8  UNL     1     154.660 158.901 166.054  0.00  0.00    +0.000 C 
ENDBRANCH  16  17
ENDBRANCH  11  16
ENDBRANCH   7  10
BRANCH   5  20
ATOM     20  N2  UNL     1     148.059 163.080 167.297  0.00  0.00    +0.000 N 
ATOM     21  O1  UNL     1     148.304 164.428 167.238  0.00  0.00    +0.000 OA
ATOM     22  O2  UNL     1     146.970 162.583 166.951  0.00  0.00    +0.000 OA
ENDBRANCH   5  20
TORSDOF 4
ENDMDL
MODEL 8
REMARK VINA RESULT:      -5.0     27.848     29.576
REMARK  Name = ./3D_structures\o28_MMV688991_3D.pdb
REMARK  5 active torsions:
REMARK  status: ('A' for Active; 'I' for Inactive)
REMARK    1  A    between atoms: C3_5  and  N2_6
REMARK    2  A    between atoms: C4_10  and  C5_12
REMARK    3  A    between atoms: C6_13  and  O4_14
REMARK    4  A    between atoms: O4_14  and  C7_15
REMARK    5  A    between atoms: C7_15  and  C8_17
REMARK                            x       y       z     vdW  Elec       q    Type
REMARK                         _______ _______ _______ _____ _____    ______ ____
ROOT
ATOM      1  S1  UNL     1     166.355 141.638 166.457  0.00  0.00    +0.000 S 
ATOM      2  C1  UNL     1     167.076 141.116 164.811  0.00  0.00    +0.000 A 
ATOM      3  N1  UNL     1     168.255 141.314 165.020  0.00  0.00    +0.000 NA
ATOM      4  C2  UNL     1     168.812 141.764 166.109  0.00  0.00    +0.000 A 
ATOM      5  C3  UNL     1     167.950 142.055 167.156  0.00  0.00    +0.000 A 
ATOM      6  N3  UNL     1     166.202 140.653 163.779  0.00  0.00    +0.000 N 
ATOM      7  C4  UNL     1     166.696 140.249 162.521  0.00  0.00    +0.000 C 
ATOM      8  O3  UNL     1     167.988 140.344 162.425  0.00  0.00    +0.000 OA
ATOM      9  H2  UNL     1     165.197 140.623 163.979  0.00  0.00    +0.000 HD
ENDROOT
BRANCH   7  10
ATOM     10  C5  UNL     1     165.929 139.772 161.411  0.00  0.00    +0.000 A 
ATOM     11  C6  UNL     1     164.787 139.070 161.532  0.00  0.00    +0.000 A 
ATOM     12  C9  UNL     1     164.137 138.623 160.385  0.00  0.00    +0.000 A 
ATOM     13  C10 UNL     1     164.631 138.878 159.140  0.00  0.00    +0.000 A 
ATOM     14  C11 UNL     1     165.791 139.592 159.008  0.00  0.00    +0.000 A 
ATOM     15  C12 UNL     1     166.439 140.038 160.134  0.00  0.00    +0.000 A 
BRANCH  11  16
ATOM     16  O4  UNL     1     164.159 138.735 162.717  0.00  0.00    +0.000 OA
BRANCH  16  17
ATOM     17  C7  UNL     1     162.919 139.285 163.059  0.00  0.00    +0.000 C 
ATOM     18  O5  UNL     1     162.007 138.470 163.354  0.00  0.00    +0.000 OA
ATOM     19  C8  UNL     1     162.642 140.726 163.086  0.00  0.00    +0.000 C 
ENDBRANCH  16  17
ENDBRANCH  11  16
ENDBRANCH   7  10
BRANCH   5  20
ATOM     20  N2  UNL     1     168.192 142.547 168.447  0.00  0.00    +0.000 N 
ATOM     21  O1  UNL     1     167.366 142.225 169.494  0.00  0.00    +0.000 OA
ATOM     22  O2  UNL     1     169.187 143.283 168.584  0.00  0.00    +0.000 OA
ENDBRANCH   5  20
TORSDOF 4
ENDMDL
MODEL 9
REMARK VINA RESULT:      -4.9      7.682      8.935
REMARK  Name = ./3D_structures\o28_MMV688991_3D.pdb
REMARK  5 active torsions:
REMARK  status: ('A' for Active; 'I' for Inactive)
REMARK    1  A    between atoms: C3_5  and  N2_6
REMARK    2  A    between atoms: C4_10  and  C5_12
REMARK    3  A    between atoms: C6_13  and  O4_14
REMARK    4  A    between atoms: O4_14  and  C7_15
REMARK    5  A    between atoms: C7_15  and  C8_17
REMARK                            x       y       z     vdW  Elec       q    Type
REMARK                         _______ _______ _______ _____ _____    ______ ____
ROOT
ATOM      1  S1  UNL     1     150.877 160.888 168.827  0.00  0.00    +0.000 S 
ATOM      2  C1  UNL     1     152.198 160.588 167.538  0.00  0.00    +0.000 A 
ATOM      3  N1  UNL     1     151.843 161.368 166.679  0.00  0.00    +0.000 NA
ATOM      4  C2  UNL     1     150.817 162.172 166.700  0.00  0.00    +0.000 A 
ATOM      5  C3  UNL     1     150.035 162.127 167.845  0.00  0.00    +0.000 A 
ATOM      6  N3  UNL     1     153.222 159.624 167.795  0.00  0.00    +0.000 N 
ATOM      7  C4  UNL     1     154.240 159.362 166.855  0.00  0.00    +0.000 C 
ATOM      8  O3  UNL     1     154.136 160.076 165.775  0.00  0.00    +0.000 OA
ATOM      9  H2  UNL     1     153.196 159.124 168.690  0.00  0.00    +0.000 HD
ENDROOT
BRANCH   7  10
ATOM     10  C5  UNL     1     155.314 158.424 166.992  0.00  0.00    +0.000 A 
ATOM     11  C6  UNL     1     156.161 158.399 168.038  0.00  0.00    +0.000 A 
ATOM     12  C9  UNL     1     157.195 157.467 168.055  0.00  0.00    +0.000 A 
ATOM     13  C10 UNL     1     157.370 156.577 167.036  0.00  0.00    +0.000 A 
ATOM     14  C11 UNL     1     156.512 156.595 165.971  0.00  0.00    +0.000 A 
ATOM     15  C12 UNL     1     155.488 157.512 165.945  0.00  0.00    +0.000 A 
BRANCH  11  16
ATOM     16  O4  UNL     1     156.115 159.228 169.144  0.00  0.00    +0.000 OA
BRANCH  16  17
ATOM     17  C7  UNL     1     155.596 158.778 170.362  0.00  0.00    +0.000 C 
ATOM     18  O5  UNL     1     154.342 158.741 170.457  0.00  0.00    +0.000 OA
ATOM     19  C8  UNL     1     156.424 158.359 171.500  0.00  0.00    +0.000 C 
ENDBRANCH  16  17
ENDBRANCH  11  16
ENDBRANCH   7  10
BRANCH   5  20
ATOM     20  N2  UNL     1     148.879 162.835 168.207  0.00  0.00    +0.000 N 
ATOM     21  O1  UNL     1     148.370 162.757 169.478  0.00  0.00    +0.000 OA
ATOM     22  O2  UNL     1     148.351 163.528 167.317  0.00  0.00    +0.000 OA
ENDBRANCH   5  20
TORSDOF 4
ENDMDL
