MODEL 1
REMARK VINA RESULT:      -6.1      0.000      0.000
REMARK  Name = ./3D_structures\o36_MMV1580490_3D.pdb
REMARK  4 active torsions:
REMARK  status: ('A' for Active; 'I' for Inactive)
REMARK    1  A    between atoms: N3_7  and  C5_8
REMARK    2  A    between atoms: C5_8  and  C6_9
REMARK    3  A    between atoms: C9_12  and  C10_13
REMARK    4  A    between atoms: C10_13  and  N4_14
REMARK                            x       y       z     vdW  Elec       q    Type
REMARK                         _______ _______ _______ _____ _____    ______ ____
ROOT
ATOM      1  C6  UNL     1     158.697 155.760 165.071  0.00  0.00    +0.000 A 
ATOM      2  C7  UNL     1     157.603 156.005 165.866  0.00  0.00    +0.000 A 
ATOM      3  C8  UNL     1     157.629 157.014 166.828  0.00  0.00    +0.000 A 
ATOM      4  C9  UNL     1     158.793 157.745 166.941  0.00  0.00    +0.000 A 
ATOM      5  C15 UNL     1     159.910 157.519 166.153  0.00  0.00    +0.000 A 
ATOM      6  C16 UNL     1     159.848 156.504 165.204  0.00  0.00    +0.000 A 
ENDROOT
BRANCH   1   7
ATOM      7  C5  UNL     1     158.639 154.684 164.056  0.00  0.00    +0.000 C 
BRANCH   7  14
ATOM      8  N1  UNL     1     157.284 152.223 164.066  0.00  0.00    +0.000 NA
ATOM      9  C1  UNL     1     158.522 152.280 164.614  0.00  0.00    +0.000 A 
ATOM     10  N2  UNL     1     159.068 151.170 165.145  0.00  0.00    +0.000 NA
ATOM     11  C2  UNL     1     158.402 150.002 165.139  0.00  0.00    +0.000 A 
ATOM     12  C3  UNL     1     157.140 149.914 164.589  0.00  0.00    +0.000 A 
ATOM     13  C4  UNL     1     156.618 151.072 164.057  0.00  0.00    +0.000 A 
ATOM     14  N3  UNL     1     159.252 153.500 164.635  0.00  0.00    +0.000 N 
ATOM     15  H4  UNL     1     160.198 153.516 165.063  0.00  0.00    +0.000 HD
ENDBRANCH   7  14
ENDBRANCH   1   7
BRANCH   4  16
ATOM     16  C10 UNL     1     158.853 158.817 167.947  0.00  0.00    +0.000 C 
BRANCH  16  17
ATOM     17  N4  UNL     1     158.764 158.308 169.301  0.00  0.00    +0.000 N 
ATOM     18  C11 UNL     1     157.642 158.718 170.083  0.00  0.00    +0.000 A 
ATOM     19  N5  UNL     1     157.509 158.274 171.354  0.00  0.00    +0.000 NA
ATOM     20  C12 UNL     1     156.460 158.642 172.119  0.00  0.00    +0.000 A 
ATOM     21  C13 UNL     1     155.475 159.494 171.629  0.00  0.00    +0.000 A 
ATOM     22  C14 UNL     1     155.632 159.933 170.333  0.00  0.00    +0.000 A 
ATOM     23  N6  UNL     1     156.696 159.535 169.616  0.00  0.00    +0.000 NA
ATOM     24  H11 UNL     1     159.475 157.669 169.715  0.00  0.00    +0.000 HD
ENDBRANCH  16  17
ENDBRANCH   4  16
TORSDOF 4
ENDMDL
MODEL 2
REMARK VINA RESULT:      -5.8      0.443      8.286
REMARK  Name = ./3D_structures\o36_MMV1580490_3D.pdb
REMARK  4 active torsions:
REMARK  status: ('A' for Active; 'I' for Inactive)
REMARK    1  A    between atoms: N3_7  and  C5_8
REMARK    2  A    between atoms: C5_8  and  C6_9
REMARK    3  A    between atoms: C9_12  and  C10_13
REMARK    4  A    between atoms: C10_13  and  N4_14
REMARK                            x       y       z     vdW  Elec       q    Type
REMARK                         _______ _______ _______ _____ _____    ______ ____
ROOT
ATOM      1  C6  UNL     1     158.474 157.680 167.013  0.00  0.00    +0.000 A 
ATOM      2  C7  UNL     1     157.407 156.854 166.755  0.00  0.00    +0.000 A 
ATOM      3  C8  UNL     1     157.481 155.875 165.764  0.00  0.00    +0.000 A 
ATOM      4  C9  UNL     1     158.667 155.778 165.065  0.00  0.00    +0.000 A 
ATOM      5  C15 UNL     1     159.757 156.597 165.304  0.00  0.00    +0.000 A 
ATOM      6  C16 UNL     1     159.647 157.563 166.299  0.00  0.00    +0.000 A 
ENDROOT
BRANCH   1   7
ATOM      7  C5  UNL     1     158.367 158.709 168.071  0.00  0.00    +0.000 C 
BRANCH   7  14
ATOM      8  N1  UNL     1     156.871 159.964 170.091  0.00  0.00    +0.000 NA
ATOM      9  C1  UNL     1     157.324 158.706 170.311  0.00  0.00    +0.000 A 
ATOM     10  N2  UNL     1     157.051 158.092 171.478  0.00  0.00    +0.000 NA
ATOM     11  C2  UNL     1     156.333 158.711 172.431  0.00  0.00    +0.000 A 
ATOM     12  C3  UNL     1     155.859 159.992 172.236  0.00  0.00    +0.000 A 
ATOM     13  C4  UNL     1     156.161 160.583 171.030  0.00  0.00    +0.000 A 
ATOM     14  N3  UNL     1     158.085 158.024 169.323  0.00  0.00    +0.000 N 
ATOM     15  H4  UNL     1     158.421 157.061 169.518  0.00  0.00    +0.000 HD
ENDBRANCH   7  14
ENDBRANCH   1   7
BRANCH   4  16
ATOM     16  C10 UNL     1     158.778 154.754 164.014  0.00  0.00    +0.000 C 
BRANCH  16  17
ATOM     17  N4  UNL     1     159.401 153.536 164.493  0.00  0.00    +0.000 N 
ATOM     18  C11 UNL     1     158.602 152.353 164.508  0.00  0.00    +0.000 A 
ATOM     19  N5  UNL     1     159.133 151.188 164.945  0.00  0.00    +0.000 NA
ATOM     20  C12 UNL     1     158.405 150.052 164.972  0.00  0.00    +0.000 A 
ATOM     21  C13 UNL     1     157.079 150.036 164.550  0.00  0.00    +0.000 A 
ATOM     22  C14 UNL     1     156.561 151.235 164.109  0.00  0.00    +0.000 A 
ATOM     23  N6  UNL     1     157.331 152.336 164.104  0.00  0.00    +0.000 NA
ATOM     24  H11 UNL     1     160.389 153.496 164.820  0.00  0.00    +0.000 HD
ENDBRANCH  16  17
ENDBRANCH   4  16
TORSDOF 4
ENDMDL
MODEL 3
REMARK VINA RESULT:      -5.6     10.684     11.644
REMARK  Name = ./3D_structures\o36_MMV1580490_3D.pdb
REMARK  4 active torsions:
REMARK  status: ('A' for Active; 'I' for Inactive)
REMARK    1  A    between atoms: N3_7  and  C5_8
REMARK    2  A    between atoms: C5_8  and  C6_9
REMARK    3  A    between atoms: C9_12  and  C10_13
REMARK    4  A    between atoms: C10_13  and  N4_14
REMARK                            x       y       z     vdW  Elec       q    Type
REMARK                         _______ _______ _______ _____ _____    ______ ____
ROOT
ATOM      1  C6  UNL     1     146.448 156.450 166.428  0.00  0.00    +0.000 A 
ATOM      2  C7  UNL     1     146.897 156.586 167.720  0.00  0.00    +0.000 A 
ATOM      3  C8  UNL     1     147.279 157.831 168.218  0.00  0.00    +0.000 A 
ATOM      4  C9  UNL     1     147.184 158.907 167.360  0.00  0.00    +0.000 A 
ATOM      5  C15 UNL     1     146.735 158.799 166.054  0.00  0.00    +0.000 A 
ATOM      6  C16 UNL     1     146.363 157.541 165.590  0.00  0.00    +0.000 A 
ENDROOT
BRANCH   1   7
ATOM      7  C5  UNL     1     146.047 155.117 165.926  0.00  0.00    +0.000 C 
BRANCH   7  14
ATOM      8  N1  UNL     1     146.126 152.450 166.807  0.00  0.00    +0.000 NA
ATOM      9  C1  UNL     1     147.240 152.977 166.243  0.00  0.00    +0.000 A 
ATOM     10  N2  UNL     1     148.347 152.220 166.119  0.00  0.00    +0.000 NA
ATOM     11  C2  UNL     1     148.363 150.945 166.548  0.00  0.00    +0.000 A 
ATOM     12  C3  UNL     1     147.244 150.383 167.126  0.00  0.00    +0.000 A 
ATOM     13  C4  UNL     1     146.135 151.190 167.234  0.00  0.00    +0.000 A 
ATOM     14  N3  UNL     1     147.255 154.320 165.780  0.00  0.00    +0.000 N 
ATOM     15  H4  UNL     1     148.123 154.699 165.354  0.00  0.00    +0.000 HD
ENDBRANCH   7  14
ENDBRANCH   1   7
BRANCH   4  16
ATOM     16  C10 UNL     1     147.579 160.235 167.856  0.00  0.00    +0.000 C 
BRANCH  16  17
ATOM     17  N4  UNL     1     146.877 161.308 167.179  0.00  0.00    +0.000 N 
ATOM     18  C11 UNL     1     146.600 162.488 167.933  0.00  0.00    +0.000 A 
ATOM     19  N5  UNL     1     145.948 163.521 167.352  0.00  0.00    +0.000 NA
ATOM     20  C12 UNL     1     145.672 164.651 168.037  0.00  0.00    +0.000 A 
ATOM     21  C13 UNL     1     146.048 164.795 169.369  0.00  0.00    +0.000 A 
ATOM     22  C14 UNL     1     146.711 163.730 169.939  0.00  0.00    +0.000 A 
ATOM     23  N6  UNL     1     146.960 162.629 169.210  0.00  0.00    +0.000 NA
ATOM     24  H11 UNL     1     146.574 161.248 166.184  0.00  0.00    +0.000 HD
ENDBRANCH  16  17
ENDBRANCH   4  16
TORSDOF 4
ENDMDL
MODEL 4
REMARK VINA RESULT:      -5.5      5.448      9.271
REMARK  Name = ./3D_structures\o36_MMV1580490_3D.pdb
REMARK  4 active torsions:
REMARK  status: ('A' for Active; 'I' for Inactive)
REMARK    1  A    between atoms: N3_7  and  C5_8
REMARK    2  A    between atoms: C5_8  and  C6_9
REMARK    3  A    between atoms: C9_12  and  C10_13
REMARK    4  A    between atoms: C10_13  and  N4_14
REMARK                            x       y       z     vdW  Elec       q    Type
REMARK                         _______ _______ _______ _____ _____    ______ ____
ROOT
ATOM      1  C6  UNL     1     153.980 160.921 165.249  0.00  0.00    +0.000 A 
ATOM      2  C7  UNL     1     155.325 160.895 164.966  0.00  0.00    +0.000 A 
ATOM      3  C8  UNL     1     156.118 159.816 165.355  0.00  0.00    +0.000 A 
ATOM      4  C9  UNL     1     155.493 158.788 166.031  0.00  0.00    +0.000 A 
ATOM      5  C15 UNL     1     154.141 158.788 166.329  0.00  0.00    +0.000 A 
ATOM      6  C16 UNL     1     153.380 159.881 165.925  0.00  0.00    +0.000 A 
ENDROOT
BRANCH   1   7
ATOM      7  C5  UNL     1     153.162 162.077 164.820  0.00  0.00    +0.000 C 
BRANCH   7  14
ATOM      8  N1  UNL     1     151.689 164.466 164.945  0.00  0.00    +0.000 NA
ATOM      9  C1  UNL     1     151.378 163.470 165.809  0.00  0.00    +0.000 A 
ATOM     10  N2  UNL     1     150.382 163.646 166.698  0.00  0.00    +0.000 NA
ATOM     11  C2  UNL     1     149.689 164.797 166.741  0.00  0.00    +0.000 A 
ATOM     12  C3  UNL     1     149.983 165.828 165.873  0.00  0.00    +0.000 A 
ATOM     13  C4  UNL     1     151.009 165.609 164.981  0.00  0.00    +0.000 A 
ATOM     14  N3  UNL     1     152.091 162.241 165.790  0.00  0.00    +0.000 N 
ATOM     15  H4  UNL     1     151.833 161.495 166.465  0.00  0.00    +0.000 HD
ENDBRANCH   7  14
ENDBRANCH   1   7
BRANCH   4  16
ATOM     16  C10 UNL     1     156.303 157.635 166.455  0.00  0.00    +0.000 C 
BRANCH  16  17
ATOM     17  N4  UNL     1     155.857 157.084 167.720  0.00  0.00    +0.000 N 
ATOM     18  C11 UNL     1     156.380 157.673 168.912  0.00  0.00    +0.000 A 
ATOM     19  N5  UNL     1     155.999 157.199 170.120  0.00  0.00    +0.000 NA
ATOM     20  C12 UNL     1     156.475 157.732 171.265  0.00  0.00    +0.000 A 
ATOM     21  C13 UNL     1     157.377 158.792 171.245  0.00  0.00    +0.000 A 
ATOM     22  C14 UNL     1     157.750 159.258 170.003  0.00  0.00    +0.000 A 
ATOM     23  N6  UNL     1     157.245 158.689 168.895  0.00  0.00    +0.000 NA
ATOM     24  H11 UNL     1     155.185 156.292 167.788  0.00  0.00    +0.000 HD
ENDBRANCH  16  17
ENDBRANCH   4  16
TORSDOF 4
ENDMDL
MODEL 5
REMARK VINA RESULT:      -5.5      6.197      9.282
REMARK  Name = ./3D_structures\o36_MMV1580490_3D.pdb
REMARK  4 active torsions:
REMARK  status: ('A' for Active; 'I' for Inactive)
REMARK    1  A    between atoms: N3_7  and  C5_8
REMARK    2  A    between atoms: C5_8  and  C6_9
REMARK    3  A    between atoms: C9_12  and  C10_13
REMARK    4  A    between atoms: C10_13  and  N4_14
REMARK                            x       y       z     vdW  Elec       q    Type
REMARK                         _______ _______ _______ _____ _____    ______ ____
ROOT
ATOM      1  C6  UNL     1     152.966 158.567 168.883  0.00  0.00    +0.000 A 
ATOM      2  C7  UNL     1     153.048 159.696 168.104  0.00  0.00    +0.000 A 
ATOM      3  C8  UNL     1     152.064 160.683 168.166  0.00  0.00    +0.000 A 
ATOM      4  C9  UNL     1     151.017 160.471 169.039  0.00  0.00    +0.000 A 
ATOM      5  C15 UNL     1     150.910 159.343 169.835  0.00  0.00    +0.000 A 
ATOM      6  C16 UNL     1     151.909 158.379 169.747  0.00  0.00    +0.000 A 
ENDROOT
BRANCH   1   7
ATOM      7  C5  UNL     1     154.026 157.538 168.797  0.00  0.00    +0.000 C 
BRANCH   7  14
ATOM      8  N1  UNL     1     156.728 157.975 168.161  0.00  0.00    +0.000 NA
ATOM      9  C1  UNL     1     156.353 158.035 169.462  0.00  0.00    +0.000 A 
ATOM     10  N2  UNL     1     157.273 158.298 170.410  0.00  0.00    +0.000 NA
ATOM     11  C2  UNL     1     158.561 158.504 170.083  0.00  0.00    +0.000 A 
ATOM     12  C3  UNL     1     158.971 158.449 168.767  0.00  0.00    +0.000 A 
ATOM     13  C4  UNL     1     158.001 158.176 167.830  0.00  0.00    +0.000 A 
ATOM     14  N3  UNL     1     155.000 157.822 169.840  0.00  0.00    +0.000 N 
ATOM     15  H4  UNL     1     154.741 157.872 170.844  0.00  0.00    +0.000 HD
ENDBRANCH   7  14
ENDBRANCH   1   7
BRANCH   4  16
ATOM     16  C10 UNL     1     149.963 161.493 169.129  0.00  0.00    +0.000 C 
BRANCH  16  17
ATOM     17  N4  UNL     1     149.069 161.466 167.988  0.00  0.00    +0.000 N 
ATOM     18  C11 UNL     1     147.803 162.110 168.132  0.00  0.00    +0.000 A 
ATOM     19  N5  UNL     1     146.929 162.115 167.099  0.00  0.00    +0.000 NA
ATOM     20  C12 UNL     1     145.724 162.715 167.203  0.00  0.00    +0.000 A 
ATOM     21  C13 UNL     1     145.335 163.351 168.378  0.00  0.00    +0.000 A 
ATOM     22  C14 UNL     1     146.242 163.333 169.415  0.00  0.00    +0.000 A 
ATOM     23  N6  UNL     1     147.428 162.721 169.257  0.00  0.00    +0.000 NA
ATOM     24  H11 UNL     1     149.313 161.003 167.088  0.00  0.00    +0.000 HD
ENDBRANCH  16  17
ENDBRANCH   4  16
TORSDOF 4
ENDMDL
MODEL 6
REMARK VINA RESULT:      -5.3     12.647     14.688
REMARK  Name = ./3D_structures\o36_MMV1580490_3D.pdb
REMARK  4 active torsions:
REMARK  status: ('A' for Active; 'I' for Inactive)
REMARK    1  A    between atoms: N3_7  and  C5_8
REMARK    2  A    between atoms: C5_8  and  C6_9
REMARK    3  A    between atoms: C9_12  and  C10_13
REMARK    4  A    between atoms: C10_13  and  N4_14
REMARK                            x       y       z     vdW  Elec       q    Type
REMARK                         _______ _______ _______ _____ _____    ______ ____
ROOT
ATOM      1  C6  UNL     1     151.211 144.069 160.714  0.00  0.00    +0.000 A 
ATOM      2  C7  UNL     1     152.348 144.755 160.361  0.00  0.00    +0.000 A 
ATOM      3  C8  UNL     1     152.380 146.149 160.384  0.00  0.00    +0.000 A 
ATOM      4  C9  UNL     1     151.226 146.797 160.774  0.00  0.00    +0.000 A 
ATOM      5  C15 UNL     1     150.066 146.131 161.133  0.00  0.00    +0.000 A 
ATOM      6  C16 UNL     1     150.071 144.740 161.098  0.00  0.00    +0.000 A 
ENDROOT
BRANCH   1   7
ATOM      7  C5  UNL     1     151.207 142.589 160.683  0.00  0.00    +0.000 C 
BRANCH   7  14
ATOM      8  N1  UNL     1     152.898 140.346 160.705  0.00  0.00    +0.000 NA
ATOM      9  C1  UNL     1     152.655 140.982 161.876  0.00  0.00    +0.000 A 
ATOM     10  N2  UNL     1     153.221 140.530 163.012  0.00  0.00    +0.000 NA
ATOM     11  C2  UNL     1     154.027 139.454 163.000  0.00  0.00    +0.000 A 
ATOM     12  C3  UNL     1     154.293 138.787 161.823  0.00  0.00    +0.000 A 
ATOM     13  C4  UNL     1     153.695 139.280 160.686  0.00  0.00    +0.000 A 
ATOM     14  N3  UNL     1     151.807 142.122 161.922  0.00  0.00    +0.000 N 
ATOM     15  H4  UNL     1     151.636 142.589 162.834  0.00  0.00    +0.000 HD
ENDBRANCH   7  14
ENDBRANCH   1   7
BRANCH   4  16
ATOM     16  C10 UNL     1     151.226 148.268 160.808  0.00  0.00    +0.000 C 
BRANCH  16  17
ATOM     17  N4  UNL     1     150.057 148.804 161.477  0.00  0.00    +0.000 N 
ATOM     18  C11 UNL     1     149.055 149.410 160.659  0.00  0.00    +0.000 A 
ATOM     19  N5  UNL     1     147.943 149.927 161.229  0.00  0.00    +0.000 NA
ATOM     20  C12 UNL     1     146.977 150.505 160.484  0.00  0.00    +0.000 A 
ATOM     21  C13 UNL     1     147.090 150.592 159.100  0.00  0.00    +0.000 A 
ATOM     22  C14 UNL     1     148.231 150.059 158.543  0.00  0.00    +0.000 A 
ATOM     23  N6  UNL     1     149.161 149.494 159.332  0.00  0.00    +0.000 NA
ATOM     24  H11 UNL     1     149.925 148.765 162.509  0.00  0.00    +0.000 HD
ENDBRANCH  16  17
ENDBRANCH   4  16
TORSDOF 4
ENDMDL
MODEL 7
REMARK VINA RESULT:      -5.3      8.658     12.845
REMARK  Name = ./3D_structures\o36_MMV1580490_3D.pdb
REMARK  4 active torsions:
REMARK  status: ('A' for Active; 'I' for Inactive)
REMARK    1  A    between atoms: N3_7  and  C5_8
REMARK    2  A    between atoms: C5_8  and  C6_9
REMARK    3  A    between atoms: C9_12  and  C10_13
REMARK    4  A    between atoms: C10_13  and  N4_14
REMARK                            x       y       z     vdW  Elec       q    Type
REMARK                         _______ _______ _______ _____ _____    ______ ____
ROOT
ATOM      1  C6  UNL     1     150.295 165.104 166.303  0.00  0.00    +0.000 A 
ATOM      2  C7  UNL     1     150.945 165.407 165.130  0.00  0.00    +0.000 A 
ATOM      3  C8  UNL     1     151.780 164.477 164.512  0.00  0.00    +0.000 A 
ATOM      4  C9  UNL     1     151.921 163.251 165.130  0.00  0.00    +0.000 A 
ATOM      5  C15 UNL     1     151.279 162.919 166.311  0.00  0.00    +0.000 A 
ATOM      6  C16 UNL     1     150.453 163.872 166.900  0.00  0.00    +0.000 A 
ENDROOT
BRANCH   1   7
ATOM      7  C5  UNL     1     149.413 166.110 166.935  0.00  0.00    +0.000 C 
BRANCH   7  14
ATOM      8  N1  UNL     1     146.855 165.053 167.416  0.00  0.00    +0.000 NA
ATOM      9  C1  UNL     1     147.042 165.811 166.309  0.00  0.00    +0.000 A 
ATOM     10  N2  UNL     1     146.010 166.037 165.473  0.00  0.00    +0.000 NA
ATOM     11  C2  UNL     1     144.794 165.522 165.722  0.00  0.00    +0.000 A 
ATOM     12  C3  UNL     1     144.574 164.747 166.842  0.00  0.00    +0.000 A 
ATOM     13  C4  UNL     1     145.654 164.538 167.669  0.00  0.00    +0.000 A 
ATOM     14  N3  UNL     1     148.315 166.370 166.017  0.00  0.00    +0.000 N 
ATOM     15  H4  UNL     1     148.431 166.945 165.160  0.00  0.00    +0.000 HD
ENDBRANCH   7  14
ENDBRANCH   1   7
BRANCH   4  16
ATOM     16  C10 UNL     1     152.795 162.248 164.503  0.00  0.00    +0.000 C 
BRANCH  16  17
ATOM     17  N4  UNL     1     154.122 162.230 165.088  0.00  0.00    +0.000 N 
ATOM     18  C11 UNL     1     154.562 161.005 165.675  0.00  0.00    +0.000 A 
ATOM     19  N5  UNL     1     155.791 160.931 166.235  0.00  0.00    +0.000 NA
ATOM     20  C12 UNL     1     156.238 159.788 166.798  0.00  0.00    +0.000 A 
ATOM     21  C13 UNL     1     155.449 158.642 166.824  0.00  0.00    +0.000 A 
ATOM     22  C14 UNL     1     154.202 158.742 166.248  0.00  0.00    +0.000 A 
ATOM     23  N6  UNL     1     153.808 159.905 165.701  0.00  0.00    +0.000 NA
ATOM     24  H11 UNL     1     154.750 163.060 165.095  0.00  0.00    +0.000 HD
ENDBRANCH  16  17
ENDBRANCH   4  16
TORSDOF 4
ENDMDL
MODEL 8
REMARK VINA RESULT:      -5.3      6.554     10.301
REMARK  Name = ./3D_structures\o36_MMV1580490_3D.pdb
REMARK  4 active torsions:
REMARK  status: ('A' for Active; 'I' for Inactive)
REMARK    1  A    between atoms: N3_7  and  C5_8
REMARK    2  A    between atoms: C5_8  and  C6_9
REMARK    3  A    between atoms: C9_12  and  C10_13
REMARK    4  A    between atoms: C10_13  and  N4_14
REMARK                            x       y       z     vdW  Elec       q    Type
REMARK                         _______ _______ _______ _____ _____    ______ ____
ROOT
ATOM      1  C6  UNL     1     150.464 160.334 168.735  0.00  0.00    +0.000 A 
ATOM      2  C7  UNL     1     151.697 160.573 168.176  0.00  0.00    +0.000 A 
ATOM      3  C8  UNL     1     152.780 159.734 168.443  0.00  0.00    +0.000 A 
ATOM      4  C9  UNL     1     152.553 158.666 169.286  0.00  0.00    +0.000 A 
ATOM      5  C15 UNL     1     151.323 158.402 169.862  0.00  0.00    +0.000 A 
ATOM      6  C16 UNL     1     150.265 159.259 169.574  0.00  0.00    +0.000 A 
ENDROOT
BRANCH   1   7
ATOM      7  C5  UNL     1     149.333 161.238 168.431  0.00  0.00    +0.000 C 
BRANCH   7  14
ATOM      8  N1  UNL     1     146.537 161.000 168.551  0.00  0.00    +0.000 NA
ATOM      9  C1  UNL     1     147.175 160.559 167.440  0.00  0.00    +0.000 A 
ATOM     10  N2  UNL     1     146.464 160.023 166.430  0.00  0.00    +0.000 NA
ATOM     11  C2  UNL     1     145.125 159.918 166.508  0.00  0.00    +0.000 A 
ATOM     12  C3  UNL     1     144.449 160.358 167.626  0.00  0.00    +0.000 A 
ATOM     13  C4  UNL     1     145.213 160.899 168.636  0.00  0.00    +0.000 A 
ATOM     14  N3  UNL     1     148.588 160.656 167.327  0.00  0.00    +0.000 N 
ATOM     15  H4  UNL     1     149.052 160.309 166.465  0.00  0.00    +0.000 HD
ENDBRANCH   7  14
ENDBRANCH   1   7
BRANCH   4  16
ATOM     16  C10 UNL     1     153.675 157.763 169.587  0.00  0.00    +0.000 C 
BRANCH  16  17
ATOM     17  N4  UNL     1     154.692 157.781 168.553  0.00  0.00    +0.000 N 
ATOM     18  C11 UNL     1     156.039 158.021 168.963  0.00  0.00    +0.000 A 
ATOM     19  N5  UNL     1     157.027 158.049 168.041  0.00  0.00    +0.000 NA
ATOM     20  C12 UNL     1     158.311 158.274 168.395  0.00  0.00    +0.000 A 
ATOM     21  C13 UNL     1     158.664 158.485 169.725  0.00  0.00    +0.000 A 
ATOM     22  C14 UNL     1     157.640 158.451 170.645  0.00  0.00    +0.000 A 
ATOM     23  N6  UNL     1     156.380 158.224 170.237  0.00  0.00    +0.000 NA
ATOM     24  H11 UNL     1     154.478 157.630 167.546  0.00  0.00    +0.000 HD
ENDBRANCH  16  17
ENDBRANCH   4  16
TORSDOF 4
ENDMDL
MODEL 9
REMARK VINA RESULT:      -5.3      6.251      9.026
REMARK  Name = ./3D_structures\o36_MMV1580490_3D.pdb
REMARK  4 active torsions:
REMARK  status: ('A' for Active; 'I' for Inactive)
REMARK    1  A    between atoms: N3_7  and  C5_8
REMARK    2  A    between atoms: C5_8  and  C6_9
REMARK    3  A    between atoms: C9_12  and  C10_13
REMARK    4  A    between atoms: C10_13  and  N4_14
REMARK                            x       y       z     vdW  Elec       q    Type
REMARK                         _______ _______ _______ _____ _____    ______ ____
ROOT
ATOM      1  C6  UNL     1     153.458 159.656 166.960  0.00  0.00    +0.000 A 
ATOM      2  C7  UNL     1     153.110 160.262 165.776  0.00  0.00    +0.000 A 
ATOM      3  C8  UNL     1     152.093 161.215 165.730  0.00  0.00    +0.000 A 
ATOM      4  C9  UNL     1     151.460 161.515 166.919  0.00  0.00    +0.000 A 
ATOM      5  C15 UNL     1     151.789 160.920 168.125  0.00  0.00    +0.000 A 
ATOM      6  C16 UNL     1     152.809 159.974 168.133  0.00  0.00    +0.000 A 
ENDROOT
BRANCH   1   7
ATOM      7  C5  UNL     1     154.543 158.650 166.979  0.00  0.00    +0.000 C 
BRANCH   7  14
ATOM      8  N1  UNL     1     157.277 158.648 167.624  0.00  0.00    +0.000 NA
ATOM      9  C1  UNL     1     156.378 158.509 168.627  0.00  0.00    +0.000 A 
ATOM     10  N2  UNL     1     156.809 158.373 169.896  0.00  0.00    +0.000 NA
ATOM     11  C2  UNL     1     158.122 158.375 170.183  0.00  0.00    +0.000 A 
ATOM     12  C3  UNL     1     159.061 158.515 169.182  0.00  0.00    +0.000 A 
ATOM     13  C4  UNL     1     158.579 158.649 167.899  0.00  0.00    +0.000 A 
ATOM     14  N3  UNL     1     154.982 158.503 168.357  0.00  0.00    +0.000 N 
ATOM     15  H4  UNL     1     154.315 158.393 169.145  0.00  0.00    +0.000 HD
ENDBRANCH   7  14
ENDBRANCH   1   7
BRANCH   4  16
ATOM     16  C10 UNL     1     150.383 162.517 166.904  0.00  0.00    +0.000 C 
BRANCH  16  17
ATOM     17  N4  UNL     1     149.754 162.669 168.202  0.00  0.00    +0.000 N 
ATOM     18  C11 UNL     1     148.336 162.841 168.226  0.00  0.00    +0.000 A 
ATOM     19  N5  UNL     1     147.697 162.989 169.409  0.00  0.00    +0.000 NA
ATOM     20  C12 UNL     1     146.358 163.153 169.467  0.00  0.00    +0.000 A 
ATOM     21  C13 UNL     1     145.585 163.178 168.310  0.00  0.00    +0.000 A 
ATOM     22  C14 UNL     1     146.259 163.026 167.118  0.00  0.00    +0.000 A 
ATOM     23  N6  UNL     1     147.593 162.865 167.119  0.00  0.00    +0.000 NA
ATOM     24  H11 UNL     1     150.288 162.658 169.096  0.00  0.00    +0.000 HD
ENDBRANCH  16  17
ENDBRANCH   4  16
TORSDOF 4
ENDMDL
