MODEL 1
REMARK VINA RESULT:      -4.9      0.000      0.000
REMARK  Name = ./3D_structures\o41_MMV1581035_3D.pdb
REMARK  2 active torsions:
REMARK  status: ('A' for Active; 'I' for Inactive)
REMARK    1  A    between atoms: C1_2  and  C2_4
REMARK    2  A    between atoms: C4_6  and  N2_11
REMARK                            x       y       z     vdW  Elec       q    Type
REMARK                         _______ _______ _______ _____ _____    ______ ____
ROOT
ATOM      1  C2  UNL     1     146.107 166.095 166.549  0.00  0.00    +0.000 A 
ATOM      2  C3  UNL     1     145.983 165.359 167.704  0.00  0.00    +0.000 A 
ATOM      3  C4  UNL     1     147.112 164.876 168.327  0.00  0.00    +0.000 A 
ATOM      4  C5  UNL     1     148.368 165.134 167.786  0.00  0.00    +0.000 A 
ATOM      5  I1  UNL     1     150.034 164.378 168.771  0.00  0.00    +0.000 I 
ATOM      6  C6  UNL     1     148.525 165.868 166.631  0.00  0.00    +0.000 A 
ATOM      7  C7  UNL     1     147.381 166.338 166.030  0.00  0.00    +0.000 A 
ENDROOT
BRANCH   1   9
ATOM      8  N1  UNL     1     144.853 167.982 165.509  0.00  0.00    +0.000 N 
ATOM      9  C1  UNL     1     144.930 166.614 165.872  0.00  0.00    +0.000 C 
ATOM     10  O1  UNL     1     143.983 165.841 165.612  0.00  0.00    +0.000 OA
ATOM     11  H1  UNL     1     144.330 168.653 166.090  0.00  0.00    +0.000 HD
ATOM     12  H2  UNL     1     145.340 168.291 164.642  0.00  0.00    +0.000 HD
ENDBRANCH   1   9
BRANCH   3  13
ATOM     13  N2  UNL     1     146.933 164.122 169.517  0.00  0.00    +0.000 N 
ATOM     14  O2  UNL     1     146.811 162.762 169.399  0.00  0.00    +0.000 OA
ATOM     15  O3  UNL     1     146.892 164.691 170.609  0.00  0.00    +0.000 OA
ENDBRANCH   3  13
TORSDOF 2
ENDMDL
MODEL 2
REMARK VINA RESULT:      -4.7      2.512      2.923
REMARK  Name = ./3D_structures\o41_MMV1581035_3D.pdb
REMARK  2 active torsions:
REMARK  status: ('A' for Active; 'I' for Inactive)
REMARK    1  A    between atoms: C1_2  and  C2_4
REMARK    2  A    between atoms: C4_6  and  N2_11
REMARK                            x       y       z     vdW  Elec       q    Type
REMARK                         _______ _______ _______ _____ _____    ______ ____
ROOT
ATOM      1  C2  UNL     1     145.622 166.041 166.176  0.00  0.00    +0.000 A 
ATOM      2  C3  UNL     1     146.963 166.344 166.153  0.00  0.00    +0.000 A 
ATOM      3  C4  UNL     1     147.876 165.429 166.627  0.00  0.00    +0.000 A 
ATOM      4  C5  UNL     1     147.437 164.205 167.125  0.00  0.00    +0.000 A 
ATOM      5  I1  UNL     1     148.861 162.864 167.827  0.00  0.00    +0.000 I 
ATOM      6  C6  UNL     1     146.100 163.872 167.161  0.00  0.00    +0.000 A 
ATOM      7  C7  UNL     1     145.212 164.805 166.681  0.00  0.00    +0.000 A 
ENDROOT
BRANCH   1   9
ATOM      8  N1  UNL     1     144.965 168.366 165.560  0.00  0.00    +0.000 N 
ATOM      9  C1  UNL     1     144.640 166.992 165.682  0.00  0.00    +0.000 C 
ATOM     10  O1  UNL     1     143.501 166.585 165.364  0.00  0.00    +0.000 OA
ATOM     11  H1  UNL     1     144.675 169.042 166.281  0.00  0.00    +0.000 HD
ATOM     12  H2  UNL     1     145.505 168.674 164.725  0.00  0.00    +0.000 HD
ENDBRANCH   1   9
BRANCH   3  13
ATOM     13  N2  UNL     1     149.249 165.787 166.583  0.00  0.00    +0.000 N 
ATOM     14  O2  UNL     1     149.783 166.406 167.682  0.00  0.00    +0.000 OA
ATOM     15  O3  UNL     1     149.920 165.539 165.579  0.00  0.00    +0.000 OA
ENDBRANCH   3  13
TORSDOF 2
ENDMDL
MODEL 3
REMARK VINA RESULT:      -4.6      2.397      2.756
REMARK  Name = ./3D_structures\o41_MMV1581035_3D.pdb
REMARK  2 active torsions:
REMARK  status: ('A' for Active; 'I' for Inactive)
REMARK    1  A    between atoms: C1_2  and  C2_4
REMARK    2  A    between atoms: C4_6  and  N2_11
REMARK                            x       y       z     vdW  Elec       q    Type
REMARK                         _______ _______ _______ _____ _____    ______ ____
ROOT
ATOM      1  C2  UNL     1     145.808 165.396 166.152  0.00  0.00    +0.000 A 
ATOM      2  C3  UNL     1     146.414 165.020 167.327  0.00  0.00    +0.000 A 
ATOM      3  C4  UNL     1     146.406 163.695 167.703  0.00  0.00    +0.000 A 
ATOM      4  C5  UNL     1     145.788 162.747 166.893  0.00  0.00    +0.000 A 
ATOM      5  I1  UNL     1     145.808 160.764 167.513  0.00  0.00    +0.000 I 
ATOM      6  C6  UNL     1     145.172 163.092 165.710  0.00  0.00    +0.000 A 
ATOM      7  C7  UNL     1     145.196 164.422 165.360  0.00  0.00    +0.000 A 
ENDROOT
BRANCH   1   9
ATOM      8  N1  UNL     1     144.583 167.442 165.424  0.00  0.00    +0.000 N 
ATOM      9  C1  UNL     1     145.801 166.788 165.734  0.00  0.00    +0.000 C 
ATOM     10  O1  UNL     1     146.885 167.406 165.652  0.00  0.00    +0.000 OA
ATOM     11  H1  UNL     1     144.282 167.557 164.446  0.00  0.00    +0.000 HD
ATOM     12  H2  UNL     1     144.001 167.800 166.209  0.00  0.00    +0.000 HD
ENDBRANCH   1   9
BRANCH   3  13
ATOM     13  N2  UNL     1     147.045 163.355 168.925  0.00  0.00    +0.000 N 
ATOM     14  O2  UNL     1     146.266 163.254 170.047  0.00  0.00    +0.000 OA
ATOM     15  O3  UNL     1     148.262 163.163 168.953  0.00  0.00    +0.000 OA
ENDBRANCH   3  13
TORSDOF 2
ENDMDL
MODEL 4
REMARK VINA RESULT:      -4.5     12.381     13.672
REMARK  Name = ./3D_structures\o41_MMV1581035_3D.pdb
REMARK  2 active torsions:
REMARK  status: ('A' for Active; 'I' for Inactive)
REMARK    1  A    between atoms: C1_2  and  C2_4
REMARK    2  A    between atoms: C4_6  and  N2_11
REMARK                            x       y       z     vdW  Elec       q    Type
REMARK                         _______ _______ _______ _____ _____    ______ ____
ROOT
ATOM      1  C2  UNL     1     148.639 153.288 169.771  0.00  0.00    +0.000 A 
ATOM      2  C3  UNL     1     148.814 152.160 169.004  0.00  0.00    +0.000 A 
ATOM      3  C4  UNL     1     148.028 151.965 167.890  0.00  0.00    +0.000 A 
ATOM      4  C5  UNL     1     147.065 152.909 167.547  0.00  0.00    +0.000 A 
ATOM      5  I1  UNL     1     145.909 152.561 165.856  0.00  0.00    +0.000 I 
ATOM      6  C6  UNL     1     146.866 154.050 168.294  0.00  0.00    +0.000 A 
ATOM      7  C7  UNL     1     147.665 154.217 169.401  0.00  0.00    +0.000 A 
ENDROOT
BRANCH   1   9
ATOM      8  N1  UNL     1     150.624 154.311 170.877  0.00  0.00    +0.000 N 
ATOM      9  C1  UNL     1     149.456 153.514 170.952  0.00  0.00    +0.000 C 
ATOM     10  O1  UNL     1     149.115 152.998 172.038  0.00  0.00    +0.000 OA
ATOM     11  H1  UNL     1     151.555 153.876 170.801  0.00  0.00    +0.000 HD
ATOM     12  H2  UNL     1     150.519 155.347 170.899  0.00  0.00    +0.000 HD
ENDBRANCH   1   9
BRANCH   3  13
ATOM     13  N2  UNL     1     148.246 150.785 167.130  0.00  0.00    +0.000 N 
ATOM     14  O2  UNL     1     147.370 149.746 167.300  0.00  0.00    +0.000 OA
ATOM     15  O3  UNL     1     149.197 150.720 166.350  0.00  0.00    +0.000 OA
ENDBRANCH   3  13
TORSDOF 2
ENDMDL
MODEL 5
REMARK VINA RESULT:      -4.3      2.923      5.205
REMARK  Name = ./3D_structures\o41_MMV1581035_3D.pdb
REMARK  2 active torsions:
REMARK  status: ('A' for Active; 'I' for Inactive)
REMARK    1  A    between atoms: C1_2  and  C2_4
REMARK    2  A    between atoms: C4_6  and  N2_11
REMARK                            x       y       z     vdW  Elec       q    Type
REMARK                         _______ _______ _______ _____ _____    ______ ____
ROOT
ATOM      1  C2  UNL     1     145.714 164.301 168.551  0.00  0.00    +0.000 A 
ATOM      2  C3  UNL     1     145.745 165.362 167.676  0.00  0.00    +0.000 A 
ATOM      3  C4  UNL     1     144.849 165.409 166.632  0.00  0.00    +0.000 A 
ATOM      4  C5  UNL     1     143.918 164.387 166.468  0.00  0.00    +0.000 A 
ATOM      5  I1  UNL     1     142.592 164.513 164.874  0.00  0.00    +0.000 I 
ATOM      6  C6  UNL     1     143.862 163.312 167.328  0.00  0.00    +0.000 A 
ATOM      7  C7  UNL     1     144.768 163.291 168.361  0.00  0.00    +0.000 A 
ENDROOT
BRANCH   1   9
ATOM      8  N1  UNL     1     146.948 165.380 170.428  0.00  0.00    +0.000 N 
ATOM      9  C1  UNL     1     146.650 164.228 169.660  0.00  0.00    +0.000 C 
ATOM     10  O1  UNL     1     147.192 163.135 169.931  0.00  0.00    +0.000 OA
ATOM     11  H1  UNL     1     147.807 165.922 170.254  0.00  0.00    +0.000 HD
ATOM     12  H2  UNL     1     146.277 165.666 171.171  0.00  0.00    +0.000 HD
ENDBRANCH   1   9
BRANCH   3  13
ATOM     13  N2  UNL     1     144.920 166.524 165.755  0.00  0.00    +0.000 N 
ATOM     14  O2  UNL     1     146.071 166.695 165.032  0.00  0.00    +0.000 OA
ATOM     15  O3  UNL     1     143.967 167.299 165.663  0.00  0.00    +0.000 OA
ENDBRANCH   3  13
TORSDOF 2
ENDMDL
MODEL 6
REMARK VINA RESULT:      -4.3     12.459     13.382
REMARK  Name = ./3D_structures\o41_MMV1581035_3D.pdb
REMARK  2 active torsions:
REMARK  status: ('A' for Active; 'I' for Inactive)
REMARK    1  A    between atoms: C1_2  and  C2_4
REMARK    2  A    between atoms: C4_6  and  N2_11
REMARK                            x       y       z     vdW  Elec       q    Type
REMARK                         _______ _______ _______ _____ _____    ______ ____
ROOT
ATOM      1  C2  UNL     1     157.132 158.280 169.849  0.00  0.00    +0.000 A 
ATOM      2  C3  UNL     1     156.460 157.987 168.685  0.00  0.00    +0.000 A 
ATOM      3  C4  UNL     1     157.161 157.872 167.505  0.00  0.00    +0.000 A 
ATOM      4  C5  UNL     1     158.541 158.052 167.497  0.00  0.00    +0.000 A 
ATOM      5  I1  UNL     1     159.544 157.867 165.687  0.00  0.00    +0.000 I 
ATOM      6  C6  UNL     1     159.243 158.347 168.646  0.00  0.00    +0.000 A 
ATOM      7  C7  UNL     1     158.517 158.455 169.809  0.00  0.00    +0.000 A 
ENDROOT
BRANCH   1   9
ATOM      8  N1  UNL     1     155.474 159.451 171.296  0.00  0.00    +0.000 N 
ATOM      9  C1  UNL     1     156.414 158.408 171.106  0.00  0.00    +0.000 C 
ATOM     10  O1  UNL     1     156.634 157.585 172.021  0.00  0.00    +0.000 OA
ATOM     11  H1  UNL     1     155.732 160.305 171.811  0.00  0.00    +0.000 HD
ATOM     12  H2  UNL     1     154.518 159.332 170.901  0.00  0.00    +0.000 HD
ENDBRANCH   1   9
BRANCH   3  13
ATOM     13  N2  UNL     1     156.424 157.568 166.330  0.00  0.00    +0.000 N 
ATOM     14  O2  UNL     1     156.250 156.247 166.010  0.00  0.00    +0.000 OA
ATOM     15  O3  UNL     1     155.965 158.476 165.636  0.00  0.00    +0.000 OA
ENDBRANCH   3  13
TORSDOF 2
ENDMDL
MODEL 7
REMARK VINA RESULT:      -4.3      3.831      4.895
REMARK  Name = ./3D_structures\o41_MMV1581035_3D.pdb
REMARK  2 active torsions:
REMARK  status: ('A' for Active; 'I' for Inactive)
REMARK    1  A    between atoms: C1_2  and  C2_4
REMARK    2  A    between atoms: C4_6  and  N2_11
REMARK                            x       y       z     vdW  Elec       q    Type
REMARK                         _______ _______ _______ _____ _____    ______ ____
ROOT
ATOM      1  C2  UNL     1     145.791 165.244 166.125  0.00  0.00    +0.000 A 
ATOM      2  C3  UNL     1     145.429 164.458 165.057  0.00  0.00    +0.000 A 
ATOM      3  C4  UNL     1     144.640 163.349 165.264  0.00  0.00    +0.000 A 
ATOM      4  C5  UNL     1     144.214 163.031 166.551  0.00  0.00    +0.000 A 
ATOM      5  I1  UNL     1     143.026 161.345 166.802  0.00  0.00    +0.000 I 
ATOM      6  C6  UNL     1     144.560 163.799 167.642  0.00  0.00    +0.000 A 
ATOM      7  C7  UNL     1     145.348 164.900 167.404  0.00  0.00    +0.000 A 
ENDROOT
BRANCH   1   9
ATOM      8  N1  UNL     1     148.036 166.306 165.911  0.00  0.00    +0.000 N 
ATOM      9  C1  UNL     1     146.624 166.419 165.931  0.00  0.00    +0.000 C 
ATOM     10  O1  UNL     1     146.081 167.535 165.781  0.00  0.00    +0.000 OA
ATOM     11  H1  UNL     1     148.595 166.534 166.746  0.00  0.00    +0.000 HD
ATOM     12  H2  UNL     1     148.494 165.985 165.033  0.00  0.00    +0.000 HD
ENDBRANCH   1   9
BRANCH   3  13
ATOM     13  N2  UNL     1     144.292 162.568 164.130  0.00  0.00    +0.000 N 
ATOM     14  O2  UNL     1     143.176 162.932 163.423  0.00  0.00    +0.000 OA
ATOM     15  O3  UNL     1     144.985 161.601 163.810  0.00  0.00    +0.000 OA
ENDBRANCH   3  13
TORSDOF 2
ENDMDL
MODEL 8
REMARK VINA RESULT:      -4.2     12.267     13.271
REMARK  Name = ./3D_structures\o41_MMV1581035_3D.pdb
REMARK  2 active torsions:
REMARK  status: ('A' for Active; 'I' for Inactive)
REMARK    1  A    between atoms: C1_2  and  C2_4
REMARK    2  A    between atoms: C4_6  and  N2_11
REMARK                            x       y       z     vdW  Elec       q    Type
REMARK                         _______ _______ _______ _____ _____    ______ ____
ROOT
ATOM      1  C2  UNL     1     156.925 157.053 166.973  0.00  0.00    +0.000 A 
ATOM      2  C3  UNL     1     157.740 157.597 167.937  0.00  0.00    +0.000 A 
ATOM      3  C4  UNL     1     157.183 158.303 168.980  0.00  0.00    +0.000 A 
ATOM      4  C5  UNL     1     155.802 158.461 169.053  0.00  0.00    +0.000 A 
ATOM      5  I1  UNL     1     155.020 159.536 170.649  0.00  0.00    +0.000 I 
ATOM      6  C6  UNL     1     154.959 157.927 168.102  0.00  0.00    +0.000 A 
ATOM      7  C7  UNL     1     155.543 157.227 167.073  0.00  0.00    +0.000 A 
ENDROOT
BRANCH   1   9
ATOM      8  N1  UNL     1     156.646 155.632 164.944  0.00  0.00    +0.000 N 
ATOM      9  C1  UNL     1     157.490 156.306 165.862  0.00  0.00    +0.000 C 
ATOM     10  O1  UNL     1     158.731 156.262 165.723  0.00  0.00    +0.000 OA
ATOM     11  H1  UNL     1     156.480 154.619 165.027  0.00  0.00    +0.000 HD
ATOM     12  H2  UNL     1     156.198 156.188 164.186  0.00  0.00    +0.000 HD
ENDBRANCH   1   9
BRANCH   3  13
ATOM     13  N2  UNL     1     158.065 158.846 169.952  0.00  0.00    +0.000 N 
ATOM     14  O2  UNL     1     158.563 160.103 169.731  0.00  0.00    +0.000 OA
ATOM     15  O3  UNL     1     158.360 158.191 170.953  0.00  0.00    +0.000 OA
ENDBRANCH   3  13
TORSDOF 2
ENDMDL
MODEL 9
REMARK VINA RESULT:      -4.1     13.195     14.257
REMARK  Name = ./3D_structures\o41_MMV1581035_3D.pdb
REMARK  2 active torsions:
REMARK  status: ('A' for Active; 'I' for Inactive)
REMARK    1  A    between atoms: C1_2  and  C2_4
REMARK    2  A    between atoms: C4_6  and  N2_11
REMARK                            x       y       z     vdW  Elec       q    Type
REMARK                         _______ _______ _______ _____ _____    ______ ____
ROOT
ATOM      1  C2  UNL     1     157.451 158.202 169.906  0.00  0.00    +0.000 A 
ATOM      2  C3  UNL     1     158.642 158.619 169.359  0.00  0.00    +0.000 A 
ATOM      3  C4  UNL     1     158.972 158.242 168.076  0.00  0.00    +0.000 A 
ATOM      4  C5  UNL     1     158.099 157.444 167.342  0.00  0.00    +0.000 A 
ATOM      5  I1  UNL     1     158.651 156.908 165.411  0.00  0.00    +0.000 I 
ATOM      6  C6  UNL     1     156.898 157.011 167.861  0.00  0.00    +0.000 A 
ATOM      7  C7  UNL     1     156.596 157.403 169.144  0.00  0.00    +0.000 A 
ENDROOT
BRANCH   1   9
ATOM      8  N1  UNL     1     157.199 159.932 171.682  0.00  0.00    +0.000 N 
ATOM      9  C1  UNL     1     157.082 158.585 171.258  0.00  0.00    +0.000 C 
ATOM     10  O1  UNL     1     156.659 157.712 172.047  0.00  0.00    +0.000 OA
ATOM     11  H1  UNL     1     158.010 160.241 172.238  0.00  0.00    +0.000 HD
ATOM     12  H2  UNL     1     156.447 160.601 171.417  0.00  0.00    +0.000 HD
ENDBRANCH   1   9
BRANCH   3  13
ATOM     13  N2  UNL     1     160.212 158.697 167.556  0.00  0.00    +0.000 N 
ATOM     14  O2  UNL     1     160.230 159.910 166.918  0.00  0.00    +0.000 OA
ATOM     15  O3  UNL     1     161.226 158.010 167.685  0.00  0.00    +0.000 OA
ENDBRANCH   3  13
TORSDOF 2
ENDMDL
