MODEL 1
REMARK VINA RESULT:      -5.1      0.000      0.000
REMARK  Name = ./3D_structures\o45_MMV1581036_3D.pdb
REMARK  15 active torsions:
REMARK  status: ('A' for Active; 'I' for Inactive)
REMARK    1  A    between atoms: O1_1  and  C1_2
REMARK    2  A    between atoms: O1_1  and  C22_26
REMARK    3  A    between atoms: C2_3  and  O2_4
REMARK    4  A    between atoms: O2_4  and  C3_5
REMARK    5  A    between atoms: C6_8  and  C8_10
REMARK    6  A    between atoms: C8_10  and  C9_11
REMARK    7  A    between atoms: C9_11  and  C10_12
REMARK    8  A    between atoms: C9_11  and  C21_25
REMARK    9  A    between atoms: C10_12  and  C11_13
REMARK   10  A    between atoms: C10_12  and  C20_24
REMARK   11  A    between atoms: C11_13  and  C12_14
REMARK   12  A    between atoms: C14_16  and  O4_22
REMARK   13  A    between atoms: C15_17  and  O3_18
REMARK   14  A    between atoms: O3_18  and  C16_19
REMARK   15  A    between atoms: O4_22  and  C19_23
REMARK                            x       y       z     vdW  Elec       q    Type
REMARK                         _______ _______ _______ _____ _____    ______ ____
ROOT
ATOM      1  C9  UNL     1     156.301 157.620 166.333  0.00  0.00    +0.000 C 
ATOM      2  C21 UNL     1     156.706 156.422 165.497  0.00  0.00    +0.000 C 
ENDROOT
BRANCH   1   3
ATOM      3  C10 UNL     1     157.396 157.928 167.284  0.00  0.00    +0.000 C 
ATOM      4  C20 UNL     1     158.728 157.577 166.676  0.00  0.00    +0.000 C 
BRANCH   3   5
ATOM      5  C11 UNL     1     157.166 157.269 168.615  0.00  0.00    +0.000 C 
BRANCH   5   6
ATOM      6  C12 UNL     1     157.098 158.233 169.727  0.00  0.00    +0.000 A 
ATOM      7  C13 UNL     1     157.546 159.524 169.568  0.00  0.00    +0.000 A 
ATOM      8  C14 UNL     1     157.470 160.410 170.630  0.00  0.00    +0.000 A 
ATOM      9  C15 UNL     1     156.946 160.022 171.868  0.00  0.00    +0.000 A 
ATOM     10  C17 UNL     1     156.501 158.726 172.016  0.00  0.00    +0.000 A 
ATOM     11  C18 UNL     1     156.583 157.851 170.944  0.00  0.00    +0.000 A 
BRANCH   9  12
ATOM     12  O3  UNL     1     156.897 160.957 172.894  0.00  0.00    +0.000 OA
ATOM     13  C16 UNL     1     155.731 160.971 173.697  0.00  0.00    +0.000 C 
ENDBRANCH   9  12
BRANCH   8  14
ATOM     14  O4  UNL     1     157.914 161.707 170.491  0.00  0.00    +0.000 OA
ATOM     15  C19 UNL     1     159.055 161.946 169.694  0.00  0.00    +0.000 C 
ENDBRANCH   8  14
ENDBRANCH   5   6
ENDBRANCH   3   5
ENDBRANCH   1   3
BRANCH   1  16
ATOM     16  C8  UNL     1     154.976 157.333 166.980  0.00  0.00    +0.000 C 
BRANCH  16  21
ATOM     17  C1  UNL     1     153.041 160.223 168.459  0.00  0.00    +0.000 A 
ATOM     18  C2  UNL     1     152.820 160.983 167.336  0.00  0.00    +0.000 A 
ATOM     19  C4  UNL     1     153.290 160.575 166.095  0.00  0.00    +0.000 A 
ATOM     20  C5  UNL     1     153.982 159.382 166.037  0.00  0.00    +0.000 A 
ATOM     21  C6  UNL     1     154.218 158.597 167.159  0.00  0.00    +0.000 A 
ATOM     22  C7  UNL     1     153.740 159.030 168.372  0.00  0.00    +0.000 A 
BRANCH  17  23
ATOM     23  O1  UNL     1     152.561 160.652 169.688  0.00  0.00    +0.000 OA
ATOM     24  C22 UNL     1     153.361 160.575 170.845  0.00  0.00    +0.000 C 
ENDBRANCH  17  23
BRANCH  18  25
ATOM     25  O2  UNL     1     152.117 162.168 167.467  0.00  0.00    +0.000 OA
ATOM     26  C3  UNL     1     150.976 162.425 166.651  0.00  0.00    +0.000 C 
ENDBRANCH  18  25
ENDBRANCH  16  21
ENDBRANCH   1  16
TORSDOF 9
ENDMDL
MODEL 2
REMARK VINA RESULT:      -5.1      2.437      6.960
REMARK  Name = ./3D_structures\o45_MMV1581036_3D.pdb
REMARK  15 active torsions:
REMARK  status: ('A' for Active; 'I' for Inactive)
REMARK    1  A    between atoms: O1_1  and  C1_2
REMARK    2  A    between atoms: O1_1  and  C22_26
REMARK    3  A    between atoms: C2_3  and  O2_4
REMARK    4  A    between atoms: O2_4  and  C3_5
REMARK    5  A    between atoms: C6_8  and  C8_10
REMARK    6  A    between atoms: C8_10  and  C9_11
REMARK    7  A    between atoms: C9_11  and  C10_12
REMARK    8  A    between atoms: C9_11  and  C21_25
REMARK    9  A    between atoms: C10_12  and  C11_13
REMARK   10  A    between atoms: C10_12  and  C20_24
REMARK   11  A    between atoms: C11_13  and  C12_14
REMARK   12  A    between atoms: C14_16  and  O4_22
REMARK   13  A    between atoms: C15_17  and  O3_18
REMARK   14  A    between atoms: O3_18  and  C16_19
REMARK   15  A    between atoms: O4_22  and  C19_23
REMARK                            x       y       z     vdW  Elec       q    Type
REMARK                         _______ _______ _______ _____ _____    ______ ____
ROOT
ATOM      1  C9  UNL     1     155.949 159.125 170.829  0.00  0.00    +0.000 C 
ATOM      2  C21 UNL     1     156.078 159.086 172.339  0.00  0.00    +0.000 C 
ENDROOT
BRANCH   1   3
ATOM      3  C10 UNL     1     154.625 159.694 170.481  0.00  0.00    +0.000 C 
ATOM      4  C20 UNL     1     153.864 160.048 171.731  0.00  0.00    +0.000 C 
BRANCH   3   5
ATOM      5  C11 UNL     1     153.858 158.780 169.567  0.00  0.00    +0.000 C 
BRANCH   5   6
ATOM      6  C12 UNL     1     153.446 159.436 168.314  0.00  0.00    +0.000 A 
ATOM      7  C13 UNL     1     152.340 160.254 168.279  0.00  0.00    +0.000 A 
ATOM      8  C14 UNL     1     151.975 160.859 167.087  0.00  0.00    +0.000 A 
ATOM      9  C15 UNL     1     152.705 160.655 165.911  0.00  0.00    +0.000 A 
ATOM     10  C17 UNL     1     153.810 159.832 165.959  0.00  0.00    +0.000 A 
ATOM     11  C18 UNL     1     154.165 159.235 167.158  0.00  0.00    +0.000 A 
BRANCH   9  12
ATOM     12  O3  UNL     1     152.288 161.289 164.748  0.00  0.00    +0.000 OA
ATOM     13  C16 UNL     1     152.929 162.505 164.412  0.00  0.00    +0.000 C 
ENDBRANCH   9  12
BRANCH   8  14
ATOM     14  O4  UNL     1     150.871 161.681 167.031  0.00  0.00    +0.000 OA
ATOM     15  C19 UNL     1     149.721 161.315 167.764  0.00  0.00    +0.000 C 
ENDBRANCH   8  14
ENDBRANCH   5   6
ENDBRANCH   3   5
ENDBRANCH   1   3
BRANCH   1  16
ATOM     16  C8  UNL     1     156.197 157.747 170.285  0.00  0.00    +0.000 C 
BRANCH  16  21
ATOM     17  C1  UNL     1     158.093 157.328 167.042  0.00  0.00    +0.000 A 
ATOM     18  C2  UNL     1     159.256 157.996 167.339  0.00  0.00    +0.000 A 
ATOM     19  C4  UNL     1     159.442 158.587 168.581  0.00  0.00    +0.000 A 
ATOM     20  C5  UNL     1     158.417 158.475 169.500  0.00  0.00    +0.000 A 
ATOM     21  C6  UNL     1     157.232 157.805 169.222  0.00  0.00    +0.000 A 
ATOM     22  C7  UNL     1     157.079 157.231 167.983  0.00  0.00    +0.000 A 
BRANCH  17  23
ATOM     23  O1  UNL     1     157.930 156.745 165.793  0.00  0.00    +0.000 OA
ATOM     24  C22 UNL     1     156.659 156.342 165.342  0.00  0.00    +0.000 C 
ENDBRANCH  17  23
BRANCH  18  25
ATOM     25  O2  UNL     1     160.242 158.069 166.371  0.00  0.00    +0.000 OA
ATOM     26  C3  UNL     1     161.592 157.737 166.689  0.00  0.00    +0.000 C 
ENDBRANCH  18  25
ENDBRANCH  16  21
ENDBRANCH   1  16
TORSDOF 9
ENDMDL
MODEL 3
REMARK VINA RESULT:      -5.1      1.100      2.015
REMARK  Name = ./3D_structures\o45_MMV1581036_3D.pdb
REMARK  15 active torsions:
REMARK  status: ('A' for Active; 'I' for Inactive)
REMARK    1  A    between atoms: O1_1  and  C1_2
REMARK    2  A    between atoms: O1_1  and  C22_26
REMARK    3  A    between atoms: C2_3  and  O2_4
REMARK    4  A    between atoms: O2_4  and  C3_5
REMARK    5  A    between atoms: C6_8  and  C8_10
REMARK    6  A    between atoms: C8_10  and  C9_11
REMARK    7  A    between atoms: C9_11  and  C10_12
REMARK    8  A    between atoms: C9_11  and  C21_25
REMARK    9  A    between atoms: C10_12  and  C11_13
REMARK   10  A    between atoms: C10_12  and  C20_24
REMARK   11  A    between atoms: C11_13  and  C12_14
REMARK   12  A    between atoms: C14_16  and  O4_22
REMARK   13  A    between atoms: C15_17  and  O3_18
REMARK   14  A    between atoms: O3_18  and  C16_19
REMARK   15  A    between atoms: O4_22  and  C19_23
REMARK                            x       y       z     vdW  Elec       q    Type
REMARK                         _______ _______ _______ _____ _____    ______ ____
ROOT
ATOM      1  C9  UNL     1     156.513 158.289 166.371  0.00  0.00    +0.000 C 
ATOM      2  C21 UNL     1     157.038 158.580 164.979  0.00  0.00    +0.000 C 
ENDROOT
BRANCH   1   3
ATOM      3  C10 UNL     1     157.464 157.381 167.057  0.00  0.00    +0.000 C 
ATOM      4  C20 UNL     1     157.888 156.273 166.130  0.00  0.00    +0.000 C 
BRANCH   3   5
ATOM      5  C11 UNL     1     156.900 156.877 168.356  0.00  0.00    +0.000 C 
BRANCH   5   6
ATOM      6  C12 UNL     1     156.961 157.878 169.435  0.00  0.00    +0.000 A 
ATOM      7  C13 UNL     1     157.655 159.055 169.264  0.00  0.00    +0.000 A 
ATOM      8  C14 UNL     1     157.696 159.979 170.295  0.00  0.00    +0.000 A 
ATOM      9  C15 UNL     1     157.049 159.744 171.513  0.00  0.00    +0.000 A 
ATOM     10  C17 UNL     1     156.359 158.562 171.672  0.00  0.00    +0.000 A 
ATOM     11  C18 UNL     1     156.325 157.646 170.632  0.00  0.00    +0.000 A 
BRANCH   9  12
ATOM     12  O3  UNL     1     157.128 160.710 172.508  0.00  0.00    +0.000 OA
ATOM     13  C16 UNL     1     155.907 161.240 172.988  0.00  0.00    +0.000 C 
ENDBRANCH   9  12
BRANCH   8  14
ATOM     14  O4  UNL     1     158.385 161.162 170.144  0.00  0.00    +0.000 OA
ATOM     15  C19 UNL     1     159.383 161.238 169.148  0.00  0.00    +0.000 C 
ENDBRANCH   8  14
ENDBRANCH   5   6
ENDBRANCH   3   5
ENDBRANCH   1   3
BRANCH   1  16
ATOM     16  C8  UNL     1     155.113 157.754 166.259  0.00  0.00    +0.000 C 
BRANCH  16  21
ATOM     17  C1  UNL     1     152.778 160.690 166.730  0.00  0.00    +0.000 A 
ATOM     18  C2  UNL     1     152.365 160.481 168.023  0.00  0.00    +0.000 A 
ATOM     19  C4  UNL     1     152.831 159.398 168.756  0.00  0.00    +0.000 A 
ATOM     20  C5  UNL     1     153.722 158.545 168.134  0.00  0.00    +0.000 A 
ATOM     21  C6  UNL     1     154.154 158.735 166.828  0.00  0.00    +0.000 A 
ATOM     22  C7  UNL     1     153.673 159.817 166.130  0.00  0.00    +0.000 A 
BRANCH  17  23
ATOM     23  O1  UNL     1     152.298 161.779 166.019  0.00  0.00    +0.000 OA
ATOM     24  C22 UNL     1     152.207 161.745 164.614  0.00  0.00    +0.000 C 
ENDBRANCH  17  23
BRANCH  18  25
ATOM     25  O2  UNL     1     151.471 161.376 168.585  0.00  0.00    +0.000 OA
ATOM     26  C3  UNL     1     150.308 160.906 169.264  0.00  0.00    +0.000 C 
ENDBRANCH  18  25
ENDBRANCH  16  21
ENDBRANCH   1  16
TORSDOF 9
ENDMDL
MODEL 4
REMARK VINA RESULT:      -5.1     13.597     16.286
REMARK  Name = ./3D_structures\o45_MMV1581036_3D.pdb
REMARK  15 active torsions:
REMARK  status: ('A' for Active; 'I' for Inactive)
REMARK    1  A    between atoms: O1_1  and  C1_2
REMARK    2  A    between atoms: O1_1  and  C22_26
REMARK    3  A    between atoms: C2_3  and  O2_4
REMARK    4  A    between atoms: O2_4  and  C3_5
REMARK    5  A    between atoms: C6_8  and  C8_10
REMARK    6  A    between atoms: C8_10  and  C9_11
REMARK    7  A    between atoms: C9_11  and  C10_12
REMARK    8  A    between atoms: C9_11  and  C21_25
REMARK    9  A    between atoms: C10_12  and  C11_13
REMARK   10  A    between atoms: C10_12  and  C20_24
REMARK   11  A    between atoms: C11_13  and  C12_14
REMARK   12  A    between atoms: C14_16  and  O4_22
REMARK   13  A    between atoms: C15_17  and  O3_18
REMARK   14  A    between atoms: O3_18  and  C16_19
REMARK   15  A    between atoms: O4_22  and  C19_23
REMARK                            x       y       z     vdW  Elec       q    Type
REMARK                         _______ _______ _______ _____ _____    ______ ____
ROOT
ATOM      1  C9  UNL     1     161.447 144.964 171.680  0.00  0.00    +0.000 C 
ATOM      2  C21 UNL     1     160.986 144.635 173.085  0.00  0.00    +0.000 C 
ENDROOT
BRANCH   1   3
ATOM      3  C10 UNL     1     162.111 146.289 171.697  0.00  0.00    +0.000 C 
ATOM      4  C20 UNL     1     162.268 146.776 173.113  0.00  0.00    +0.000 C 
BRANCH   3   5
ATOM      5  C11 UNL     1     161.394 147.273 170.815  0.00  0.00    +0.000 C 
BRANCH   5   6
ATOM      6  C12 UNL     1     162.296 147.969 169.881  0.00  0.00    +0.000 A 
ATOM      7  C13 UNL     1     163.140 147.259 169.057  0.00  0.00    +0.000 A 
ATOM      8  C14 UNL     1     163.979 147.939 168.188  0.00  0.00    +0.000 A 
ATOM      9  C15 UNL     1     163.989 149.337 168.128  0.00  0.00    +0.000 A 
ATOM     10  C17 UNL     1     163.140 150.036 168.957  0.00  0.00    +0.000 A 
ATOM     11  C18 UNL     1     162.306 149.343 169.821  0.00  0.00    +0.000 A 
BRANCH   9  12
ATOM     12  O3  UNL     1     164.853 149.959 167.235  0.00  0.00    +0.000 OA
ATOM     13  C16 UNL     1     165.966 150.639 167.786  0.00  0.00    +0.000 C 
ENDBRANCH   9  12
BRANCH   8  14
ATOM     14  O4  UNL     1     164.831 147.247 167.357  0.00  0.00    +0.000 OA
ATOM     15  C19 UNL     1     165.637 146.230 167.914  0.00  0.00    +0.000 C 
ENDBRANCH   8  14
ENDBRANCH   5   6
ENDBRANCH   3   5
ENDBRANCH   1   3
BRANCH   1  16
ATOM     16  C8  UNL     1     160.272 144.869 170.749  0.00  0.00    +0.000 C 
BRANCH  16  21
ATOM     17  C1  UNL     1     160.424 143.248 167.337  0.00  0.00    +0.000 A 
ATOM     18  C2  UNL     1     161.322 142.237 167.576  0.00  0.00    +0.000 A 
ATOM     19  C4  UNL     1     161.888 142.066 168.832  0.00  0.00    +0.000 A 
ATOM     20  C5  UNL     1     161.510 142.948 169.826  0.00  0.00    +0.000 A 
ATOM     21  C6  UNL     1     160.604 143.978 169.608  0.00  0.00    +0.000 A 
ATOM     22  C7  UNL     1     160.063 144.120 168.353  0.00  0.00    +0.000 A 
BRANCH  17  23
ATOM     23  O1  UNL     1     159.872 143.399 166.073  0.00  0.00    +0.000 OA
ATOM     24  C22 UNL     1     159.808 144.663 165.456  0.00  0.00    +0.000 C 
ENDBRANCH  17  23
BRANCH  18  25
ATOM     25  O2  UNL     1     161.655 141.388 166.534  0.00  0.00    +0.000 OA
ATOM     26  C3  UNL     1     162.866 141.580 165.805  0.00  0.00    +0.000 C 
ENDBRANCH  18  25
ENDBRANCH  16  21
ENDBRANCH   1  16
TORSDOF 9
ENDMDL
MODEL 5
REMARK VINA RESULT:      -5.0      5.348      8.271
REMARK  Name = ./3D_structures\o45_MMV1581036_3D.pdb
REMARK  15 active torsions:
REMARK  status: ('A' for Active; 'I' for Inactive)
REMARK    1  A    between atoms: O1_1  and  C1_2
REMARK    2  A    between atoms: O1_1  and  C22_26
REMARK    3  A    between atoms: C2_3  and  O2_4
REMARK    4  A    between atoms: O2_4  and  C3_5
REMARK    5  A    between atoms: C6_8  and  C8_10
REMARK    6  A    between atoms: C8_10  and  C9_11
REMARK    7  A    between atoms: C9_11  and  C10_12
REMARK    8  A    between atoms: C9_11  and  C21_25
REMARK    9  A    between atoms: C10_12  and  C11_13
REMARK   10  A    between atoms: C10_12  and  C20_24
REMARK   11  A    between atoms: C11_13  and  C12_14
REMARK   12  A    between atoms: C14_16  and  O4_22
REMARK   13  A    between atoms: C15_17  and  O3_18
REMARK   14  A    between atoms: O3_18  and  C16_19
REMARK   15  A    between atoms: O4_22  and  C19_23
REMARK                            x       y       z     vdW  Elec       q    Type
REMARK                         _______ _______ _______ _____ _____    ______ ____
ROOT
ATOM      1  C9  UNL     1     158.492 155.986 165.280  0.00  0.00    +0.000 C 
ATOM      2  C21 UNL     1     159.014 157.205 164.547  0.00  0.00    +0.000 C 
ENDROOT
BRANCH   1   3
ATOM      3  C10 UNL     1     159.134 154.778 164.710  0.00  0.00    +0.000 C 
ATOM      4  C20 UNL     1     160.561 155.074 164.333  0.00  0.00    +0.000 C 
BRANCH   3   5
ATOM      5  C11 UNL     1     158.330 154.217 163.569  0.00  0.00    +0.000 C 
BRANCH   5   6
ATOM      6  C12 UNL     1     157.933 152.814 163.783  0.00  0.00    +0.000 A 
ATOM      7  C13 UNL     1     158.624 152.015 164.665  0.00  0.00    +0.000 A 
ATOM      8  C14 UNL     1     158.229 150.699 164.847  0.00  0.00    +0.000 A 
ATOM      9  C15 UNL     1     157.142 150.160 164.151  0.00  0.00    +0.000 A 
ATOM     10  C17 UNL     1     156.460 150.970 163.270  0.00  0.00    +0.000 A 
ATOM     11  C18 UNL     1     156.864 152.285 163.099  0.00  0.00    +0.000 A 
BRANCH   9  12
ATOM     12  O3  UNL     1     156.797 148.833 164.377  0.00  0.00    +0.000 OA
ATOM     13  C16 UNL     1     156.864 147.953 163.270  0.00  0.00    +0.000 C 
ENDBRANCH   9  12
BRANCH   8  14
ATOM     14  O4  UNL     1     158.908 149.882 165.725  0.00  0.00    +0.000 OA
ATOM     15  C19 UNL     1     160.122 149.298 165.301  0.00  0.00    +0.000 C 
ENDBRANCH   8  14
ENDBRANCH   5   6
ENDBRANCH   3   5
ENDBRANCH   1   3
BRANCH   1  16
ATOM     16  C8  UNL     1     156.991 155.985 165.211  0.00  0.00    +0.000 C 
BRANCH  16  21
ATOM     17  C1  UNL     1     156.425 157.606 168.579  0.00  0.00    +0.000 A 
ATOM     18  C2  UNL     1     155.284 158.327 168.326  0.00  0.00    +0.000 A 
ATOM     19  C4  UNL     1     154.685 158.300 167.073  0.00  0.00    +0.000 A 
ATOM     20  C5  UNL     1     155.281 157.523 166.100  0.00  0.00    +0.000 A 
ATOM     21  C6  UNL     1     156.436 156.786 166.332  0.00  0.00    +0.000 A 
ATOM     22  C7  UNL     1     157.003 156.834 167.583  0.00  0.00    +0.000 A 
BRANCH  17  23
ATOM     23  O1  UNL     1     157.004 157.649 169.839  0.00  0.00    +0.000 OA
ATOM     24  C22 UNL     1     158.175 158.394 170.074  0.00  0.00    +0.000 C 
ENDBRANCH  17  23
BRANCH  18  25
ATOM     25  O2  UNL     1     154.739 159.084 169.349  0.00  0.00    +0.000 OA
ATOM     26  C3  UNL     1     153.501 158.707 169.947  0.00  0.00    +0.000 C 
ENDBRANCH  18  25
ENDBRANCH  16  21
ENDBRANCH   1  16
TORSDOF 9
ENDMDL
MODEL 6
REMARK VINA RESULT:      -5.0      2.194      3.791
REMARK  Name = ./3D_structures\o45_MMV1581036_3D.pdb
REMARK  15 active torsions:
REMARK  status: ('A' for Active; 'I' for Inactive)
REMARK    1  A    between atoms: O1_1  and  C1_2
REMARK    2  A    between atoms: O1_1  and  C22_26
REMARK    3  A    between atoms: C2_3  and  O2_4
REMARK    4  A    between atoms: O2_4  and  C3_5
REMARK    5  A    between atoms: C6_8  and  C8_10
REMARK    6  A    between atoms: C8_10  and  C9_11
REMARK    7  A    between atoms: C9_11  and  C10_12
REMARK    8  A    between atoms: C9_11  and  C21_25
REMARK    9  A    between atoms: C10_12  and  C11_13
REMARK   10  A    between atoms: C10_12  and  C20_24
REMARK   11  A    between atoms: C11_13  and  C12_14
REMARK   12  A    between atoms: C14_16  and  O4_22
REMARK   13  A    between atoms: C15_17  and  O3_18
REMARK   14  A    between atoms: O3_18  and  C16_19
REMARK   15  A    between atoms: O4_22  and  C19_23
REMARK                            x       y       z     vdW  Elec       q    Type
REMARK                         _______ _______ _______ _____ _____    ______ ____
ROOT
ATOM      1  C9  UNL     1     156.877 157.726 166.746  0.00  0.00    +0.000 C 
ATOM      2  C21 UNL     1     157.557 156.379 166.605  0.00  0.00    +0.000 C 
ENDROOT
BRANCH   1   3
ATOM      3  C10 UNL     1     156.863 158.102 168.180  0.00  0.00    +0.000 C 
ATOM      4  C20 UNL     1     158.264 158.113 168.730  0.00  0.00    +0.000 C 
BRANCH   3   5
ATOM      5  C11 UNL     1     155.929 157.226 168.967  0.00  0.00    +0.000 C 
BRANCH   5   6
ATOM      6  C12 UNL     1     154.795 157.968 169.543  0.00  0.00    +0.000 A 
ATOM      7  C13 UNL     1     155.005 158.978 170.454  0.00  0.00    +0.000 A 
ATOM      8  C14 UNL     1     153.919 159.660 170.980  0.00  0.00    +0.000 A 
ATOM      9  C15 UNL     1     152.608 159.344 170.608  0.00  0.00    +0.000 A 
ATOM     10  C17 UNL     1     152.411 158.330 169.696  0.00  0.00    +0.000 A 
ATOM     11  C18 UNL     1     153.506 157.657 169.177  0.00  0.00    +0.000 A 
BRANCH   9  12
ATOM     12  O3  UNL     1     151.563 160.065 171.172  0.00  0.00    +0.000 OA
ATOM     13  C16 UNL     1     150.905 161.001 170.339  0.00  0.00    +0.000 C 
ENDBRANCH   9  12
BRANCH   8  14
ATOM     14  O4  UNL     1     154.109 160.674 171.893  0.00  0.00    +0.000 OA
ATOM     15  C19 UNL     1     154.411 160.330 173.229  0.00  0.00    +0.000 C 
ENDBRANCH   8  14
ENDBRANCH   5   6
ENDBRANCH   3   5
ENDBRANCH   1   3
BRANCH   1  16
ATOM     16  C8  UNL     1     155.519 157.653 166.108  0.00  0.00    +0.000 C 
BRANCH  16  21
ATOM     17  C1  UNL     1     155.353 161.224 164.881  0.00  0.00    +0.000 A 
ATOM     18  C2  UNL     1     154.042 161.528 165.159  0.00  0.00    +0.000 A 
ATOM     19  C4  UNL     1     153.200 160.591 165.743  0.00  0.00    +0.000 A 
ATOM     20  C5  UNL     1     153.732 159.349 166.030  0.00  0.00    +0.000 A 
ATOM     21  C6  UNL     1     155.054 159.019 165.757  0.00  0.00    +0.000 A 
ATOM     22  C7  UNL     1     155.860 159.969 165.179  0.00  0.00    +0.000 A 
BRANCH  17  23
ATOM     23  O1  UNL     1     156.174 162.178 164.298  0.00  0.00    +0.000 OA
ATOM     24  C22 UNL     1     157.058 162.947 165.078  0.00  0.00    +0.000 C 
ENDBRANCH  17  23
BRANCH  18  25
ATOM     25  O2  UNL     1     153.575 162.793 164.846  0.00  0.00    +0.000 OA
ATOM     26  C3  UNL     1     152.385 162.953 164.077  0.00  0.00    +0.000 C 
ENDBRANCH  18  25
ENDBRANCH  16  21
ENDBRANCH   1  16
TORSDOF 9
ENDMDL
MODEL 7
REMARK VINA RESULT:      -5.0      5.618      8.507
REMARK  Name = ./3D_structures\o45_MMV1581036_3D.pdb
REMARK  15 active torsions:
REMARK  status: ('A' for Active; 'I' for Inactive)
REMARK    1  A    between atoms: O1_1  and  C1_2
REMARK    2  A    between atoms: O1_1  and  C22_26
REMARK    3  A    between atoms: C2_3  and  O2_4
REMARK    4  A    between atoms: O2_4  and  C3_5
REMARK    5  A    between atoms: C6_8  and  C8_10
REMARK    6  A    between atoms: C8_10  and  C9_11
REMARK    7  A    between atoms: C9_11  and  C10_12
REMARK    8  A    between atoms: C9_11  and  C21_25
REMARK    9  A    between atoms: C10_12  and  C11_13
REMARK   10  A    between atoms: C10_12  and  C20_24
REMARK   11  A    between atoms: C11_13  and  C12_14
REMARK   12  A    between atoms: C14_16  and  O4_22
REMARK   13  A    between atoms: C15_17  and  O3_18
REMARK   14  A    between atoms: O3_18  and  C16_19
REMARK   15  A    between atoms: O4_22  and  C19_23
REMARK                            x       y       z     vdW  Elec       q    Type
REMARK                         _______ _______ _______ _____ _____    ______ ____
ROOT
ATOM      1  C9  UNL     1     157.847 154.597 163.634  0.00  0.00    +0.000 C 
ATOM      2  C21 UNL     1     158.502 154.798 162.282  0.00  0.00    +0.000 C 
ENDROOT
BRANCH   1   3
ATOM      3  C10 UNL     1     157.588 155.926 164.239  0.00  0.00    +0.000 C 
ATOM      4  C20 UNL     1     158.378 156.988 163.521  0.00  0.00    +0.000 C 
BRANCH   3   5
ATOM      5  C11 UNL     1     157.837 155.911 165.721  0.00  0.00    +0.000 C 
BRANCH   5   6
ATOM      6  C12 UNL     1     156.881 156.744 166.471  0.00  0.00    +0.000 A 
ATOM      7  C13 UNL     1     157.156 157.144 167.759  0.00  0.00    +0.000 A 
ATOM      8  C14 UNL     1     156.240 157.928 168.441  0.00  0.00    +0.000 A 
ATOM      9  C15 UNL     1     155.034 158.323 167.851  0.00  0.00    +0.000 A 
ATOM     10  C17 UNL     1     154.771 157.916 166.561  0.00  0.00    +0.000 A 
ATOM     11  C18 UNL     1     155.697 157.133 165.890  0.00  0.00    +0.000 A 
BRANCH   9  12
ATOM     12  O3  UNL     1     154.157 159.109 168.587  0.00  0.00    +0.000 OA
ATOM     13  C16 UNL     1     153.530 160.182 167.909  0.00  0.00    +0.000 C 
ENDBRANCH   9  12
BRANCH   8  14
ATOM     14  O4  UNL     1     156.496 158.338 169.731  0.00  0.00    +0.000 OA
ATOM     15  C19 UNL     1     156.116 157.491 170.795  0.00  0.00    +0.000 C 
ENDBRANCH   8  14
ENDBRANCH   5   6
ENDBRANCH   3   5
ENDBRANCH   1   3
BRANCH   1  16
ATOM     16  C8  UNL     1     158.715 153.694 164.464  0.00  0.00    +0.000 C 
BRANCH  16  21
ATOM     17  C1  UNL     1     158.327 149.949 164.799  0.00  0.00    +0.000 A 
ATOM     18  C2  UNL     1     157.083 149.771 164.243  0.00  0.00    +0.000 A 
ATOM     19  C4  UNL     1     156.358 150.850 163.756  0.00  0.00    +0.000 A 
ATOM     20  C5  UNL     1     156.936 152.101 163.852  0.00  0.00    +0.000 A 
ATOM     21  C6  UNL     1     158.191 152.305 164.411  0.00  0.00    +0.000 A 
ATOM     22  C7  UNL     1     158.883 151.216 164.884  0.00  0.00    +0.000 A 
BRANCH  17  23
ATOM     23  O1  UNL     1     159.032 148.854 165.279  0.00  0.00    +0.000 OA
ATOM     24  C22 UNL     1     160.144 148.347 164.581  0.00  0.00    +0.000 C 
ENDBRANCH  17  23
BRANCH  18  25
ATOM     25  O2  UNL     1     156.564 148.489 164.178  0.00  0.00    +0.000 OA
ATOM     26  C3  UNL     1     156.464 147.814 162.926  0.00  0.00    +0.000 C 
ENDBRANCH  18  25
ENDBRANCH  16  21
ENDBRANCH   1  16
TORSDOF 9
ENDMDL
MODEL 8
REMARK VINA RESULT:      -5.0      1.986      5.742
REMARK  Name = ./3D_structures\o45_MMV1581036_3D.pdb
REMARK  15 active torsions:
REMARK  status: ('A' for Active; 'I' for Inactive)
REMARK    1  A    between atoms: O1_1  and  C1_2
REMARK    2  A    between atoms: O1_1  and  C22_26
REMARK    3  A    between atoms: C2_3  and  O2_4
REMARK    4  A    between atoms: O2_4  and  C3_5
REMARK    5  A    between atoms: C6_8  and  C8_10
REMARK    6  A    between atoms: C8_10  and  C9_11
REMARK    7  A    between atoms: C9_11  and  C10_12
REMARK    8  A    between atoms: C9_11  and  C21_25
REMARK    9  A    between atoms: C10_12  and  C11_13
REMARK   10  A    between atoms: C10_12  and  C20_24
REMARK   11  A    between atoms: C11_13  and  C12_14
REMARK   12  A    between atoms: C14_16  and  O4_22
REMARK   13  A    between atoms: C15_17  and  O3_18
REMARK   14  A    between atoms: O3_18  and  C16_19
REMARK   15  A    between atoms: O4_22  and  C19_23
REMARK                            x       y       z     vdW  Elec       q    Type
REMARK                         _______ _______ _______ _____ _____    ______ ____
ROOT
ATOM      1  C9  UNL     1     157.066 157.323 165.821  0.00  0.00    +0.000 C 
ATOM      2  C21 UNL     1     157.105 155.975 165.129  0.00  0.00    +0.000 C 
ENDROOT
BRANCH   1   3
ATOM      3  C10 UNL     1     157.091 158.387 164.789  0.00  0.00    +0.000 C 
ATOM      4  C20 UNL     1     158.284 158.213 163.888  0.00  0.00    +0.000 C 
BRANCH   3   5
ATOM      5  C11 UNL     1     157.020 159.755 165.410  0.00  0.00    +0.000 C 
BRANCH   5   6
ATOM      6  C12 UNL     1     155.657 160.315 165.408  0.00  0.00    +0.000 A 
ATOM      7  C13 UNL     1     155.436 161.625 165.048  0.00  0.00    +0.000 A 
ATOM      8  C14 UNL     1     154.144 162.126 165.055  0.00  0.00    +0.000 A 
ATOM      9  C15 UNL     1     153.054 161.330 165.423  0.00  0.00    +0.000 A 
ATOM     10  C17 UNL     1     153.289 160.021 165.782  0.00  0.00    +0.000 A 
ATOM     11  C18 UNL     1     154.586 159.532 165.770  0.00  0.00    +0.000 A 
BRANCH   9  12
ATOM     12  O3  UNL     1     151.783 161.892 165.410  0.00  0.00    +0.000 OA
ATOM     13  C16 UNL     1     151.140 162.055 166.660  0.00  0.00    +0.000 C 
ENDBRANCH   9  12
BRANCH   8  14
ATOM     14  O4  UNL     1     153.902 163.434 164.698  0.00  0.00    +0.000 OA
ATOM     15  C19 UNL     1     153.848 163.759 163.325  0.00  0.00    +0.000 C 
ENDBRANCH   8  14
ENDBRANCH   5   6
ENDBRANCH   3   5
ENDBRANCH   1   3
BRANCH   1  16
ATOM     16  C8  UNL     1     158.192 157.391 166.813  0.00  0.00    +0.000 C 
BRANCH  16  21
ATOM     17  C1  UNL     1     155.908 157.791 169.798  0.00  0.00    +0.000 A 
ATOM     18  C2  UNL     1     156.794 158.260 170.736  0.00  0.00    +0.000 A 
ATOM     19  C4  UNL     1     158.132 158.453 170.420  0.00  0.00    +0.000 A 
ATOM     20  C5  UNL     1     158.532 158.156 169.132  0.00  0.00    +0.000 A 
ATOM     21  C6  UNL     1     157.654 157.679 168.167  0.00  0.00    +0.000 A 
ATOM     22  C7  UNL     1     156.336 157.500 168.512  0.00  0.00    +0.000 A 
BRANCH  17  23
ATOM     23  O1  UNL     1     154.575 157.607 170.137  0.00  0.00    +0.000 OA
ATOM     24  C22 UNL     1     153.548 157.877 169.213  0.00  0.00    +0.000 C 
ENDBRANCH  17  23
BRANCH  18  25
ATOM     25  O2  UNL     1     156.325 158.539 172.008  0.00  0.00    +0.000 OA
ATOM     26  C3  UNL     1     156.125 159.888 172.425  0.00  0.00    +0.000 C 
ENDBRANCH  18  25
ENDBRANCH  16  21
ENDBRANCH   1  16
TORSDOF 9
ENDMDL
MODEL 9
REMARK VINA RESULT:      -5.0      5.217      8.426
REMARK  Name = ./3D_structures\o45_MMV1581036_3D.pdb
REMARK  15 active torsions:
REMARK  status: ('A' for Active; 'I' for Inactive)
REMARK    1  A    between atoms: O1_1  and  C1_2
REMARK    2  A    between atoms: O1_1  and  C22_26
REMARK    3  A    between atoms: C2_3  and  O2_4
REMARK    4  A    between atoms: O2_4  and  C3_5
REMARK    5  A    between atoms: C6_8  and  C8_10
REMARK    6  A    between atoms: C8_10  and  C9_11
REMARK    7  A    between atoms: C9_11  and  C10_12
REMARK    8  A    between atoms: C9_11  and  C21_25
REMARK    9  A    between atoms: C10_12  and  C11_13
REMARK   10  A    between atoms: C10_12  and  C20_24
REMARK   11  A    between atoms: C11_13  and  C12_14
REMARK   12  A    between atoms: C14_16  and  O4_22
REMARK   13  A    between atoms: C15_17  and  O3_18
REMARK   14  A    between atoms: O3_18  and  C16_19
REMARK   15  A    between atoms: O4_22  and  C19_23
REMARK                            x       y       z     vdW  Elec       q    Type
REMARK                         _______ _______ _______ _____ _____    ______ ____
ROOT
ATOM      1  C9  UNL     1     158.621 156.148 165.017  0.00  0.00    +0.000 C 
ATOM      2  C21 UNL     1     159.118 157.291 164.155  0.00  0.00    +0.000 C 
ENDROOT
BRANCH   1   3
ATOM      3  C10 UNL     1     159.288 154.898 164.579  0.00  0.00    +0.000 C 
ATOM      4  C20 UNL     1     160.757 155.141 164.358  0.00  0.00    +0.000 C 
BRANCH   3   5
ATOM      5  C11 UNL     1     158.604 154.304 163.380  0.00  0.00    +0.000 C 
BRANCH   5   6
ATOM      6  C12 UNL     1     158.085 152.948 163.629  0.00  0.00    +0.000 A 
ATOM      7  C13 UNL     1     156.931 152.513 163.018  0.00  0.00    +0.000 A 
ATOM      8  C14 UNL     1     156.466 151.232 163.270  0.00  0.00    +0.000 A 
ATOM      9  C15 UNL     1     157.142 150.367 164.136  0.00  0.00    +0.000 A 
ATOM     10  C17 UNL     1     158.296 150.815 164.742  0.00  0.00    +0.000 A 
ATOM     11  C18 UNL     1     158.751 152.097 164.480  0.00  0.00    +0.000 A 
BRANCH   9  12
ATOM     12  O3  UNL     1     156.624 149.095 164.347  0.00  0.00    +0.000 OA
ATOM     13  C16 UNL     1     157.272 148.020 163.694  0.00  0.00    +0.000 C 
ENDBRANCH   9  12
BRANCH   8  14
ATOM     14  O4  UNL     1     155.312 150.778 162.668  0.00  0.00    +0.000 OA
ATOM     15  C19 UNL     1     155.302 150.620 161.265  0.00  0.00    +0.000 C 
ENDBRANCH   8  14
ENDBRANCH   5   6
ENDBRANCH   3   5
ENDBRANCH   1   3
BRANCH   1  16
ATOM     16  C8  UNL     1     157.120 156.109 164.953  0.00  0.00    +0.000 C 
BRANCH  16  21
ATOM     17  C1  UNL     1     154.914 158.092 167.295  0.00  0.00    +0.000 A 
ATOM     18  C2  UNL     1     155.603 157.952 168.475  0.00  0.00    +0.000 A 
ATOM     19  C4  UNL     1     156.782 157.220 168.530  0.00  0.00    +0.000 A 
ATOM     20  C5  UNL     1     157.229 156.644 167.357  0.00  0.00    +0.000 A 
ATOM     21  C6  UNL     1     156.548 156.772 166.153  0.00  0.00    +0.000 A 
ATOM     22  C7  UNL     1     155.385 157.503 166.133  0.00  0.00    +0.000 A 
BRANCH  17  23
ATOM     23  O1  UNL     1     153.738 158.829 167.266  0.00  0.00    +0.000 OA
ATOM     24  C22 UNL     1     153.603 159.944 166.417  0.00  0.00    +0.000 C 
ENDBRANCH  17  23
BRANCH  18  25
ATOM     25  O2  UNL     1     155.098 158.557 169.613  0.00  0.00    +0.000 OA
ATOM     26  C3  UNL     1     155.824 158.510 170.839  0.00  0.00    +0.000 C 
ENDBRANCH  18  25
ENDBRANCH  16  21
ENDBRANCH   1  16
TORSDOF 9
ENDMDL
