MODEL 1
REMARK VINA RESULT:      -6.9      0.000      0.000
REMARK  Name = ./3D_structures\o48_MMV019724_3D.pdb
REMARK  6 active torsions:
REMARK  status: ('A' for Active; 'I' for Inactive)
REMARK    1  A    between atoms: N2_10  and  C8_11
REMARK    2  A    between atoms: C8_11  and  C9_12
REMARK    3  A    between atoms: C8_11  and  C18_23
REMARK    4  A    between atoms: C10_13  and  O1_14
REMARK    5  A    between atoms: C21_26  and  O2_27
REMARK    6  A    between atoms: O2_27  and  C22_28
REMARK                            x       y       z     vdW  Elec       q    Type
REMARK                         _______ _______ _______ _____ _____    ______ ____
ROOT
ATOM      1  C8  UNL     1     149.587 164.469 168.043  0.00  0.00    +0.000 C 
ENDROOT
BRANCH   1  11
ATOM      2  S1  UNL     1     152.538 163.256 165.325  0.00  0.00    +0.000 S 
ATOM      3  C1  UNL     1     151.337 163.369 166.756  0.00  0.00    +0.000 A 
ATOM      4  N1  UNL     1     151.654 162.222 167.325  0.00  0.00    +0.000 NA
ATOM      5  C2  UNL     1     152.523 161.388 166.926  0.00  0.00    +0.000 A 
ATOM      6  C3  UNL     1     153.255 161.661 165.763  0.00  0.00    +0.000 A 
ATOM      7  C4  UNL     1     154.213 160.849 165.232  0.00  0.00    +0.000 A 
ATOM      8  C5  UNL     1     154.533 159.643 165.843  0.00  0.00    +0.000 A 
ATOM      9  C6  UNL     1     153.834 159.350 166.979  0.00  0.00    +0.000 A 
ATOM     10  C7  UNL     1     152.877 160.158 167.515  0.00  0.00    +0.000 A 
ATOM     11  N2  UNL     1     150.488 164.424 166.933  0.00  0.00    +0.000 N 
ATOM     12  H5  UNL     1     150.491 165.213 166.249  0.00  0.00    +0.000 HD
ENDBRANCH   1  11
BRANCH   1  13
ATOM     13  C9  UNL     1     148.158 164.578 167.582  0.00  0.00    +0.000 A 
ATOM     14  C10 UNL     1     147.692 165.653 166.851  0.00  0.00    +0.000 A 
ATOM     15  C11 UNL     1     146.365 165.716 166.444  0.00  0.00    +0.000 A 
ATOM     16  N3  UNL     1     145.923 166.774 165.731  0.00  0.00    +0.000 NA
ATOM     17  C12 UNL     1     144.625 166.804 165.355  0.00  0.00    +0.000 A 
ATOM     18  C13 UNL     1     143.758 165.778 165.688  0.00  0.00    +0.000 A 
ATOM     19  C14 UNL     1     144.207 164.701 166.413  0.00  0.00    +0.000 A 
ATOM     20  C15 UNL     1     145.536 164.675 166.796  0.00  0.00    +0.000 A 
ATOM     21  C16 UNL     1     146.015 163.604 167.530  0.00  0.00    +0.000 A 
ATOM     22  C17 UNL     1     147.325 163.529 167.939  0.00  0.00    +0.000 A 
BRANCH  14  23
ATOM     23  O1  UNL     1     148.549 166.678 166.516  0.00  0.00    +0.000 OA
ATOM     24  H7  UNL     1     149.539 166.488 166.460  0.00  0.00    +0.000 HD
ENDBRANCH  14  23
ENDBRANCH   1  13
BRANCH   1  25
ATOM     25  C18 UNL     1     149.922 165.566 169.008  0.00  0.00    +0.000 A 
ATOM     26  C19 UNL     1     149.224 165.661 170.174  0.00  0.00    +0.000 A 
ATOM     27  C20 UNL     1     149.529 166.679 171.072  0.00  0.00    +0.000 A 
ATOM     28  C21 UNL     1     150.507 167.622 170.862  0.00  0.00    +0.000 A 
ATOM     29  C23 UNL     1     151.206 167.498 169.651  0.00  0.00    +0.000 A 
ATOM     30  C24 UNL     1     150.907 166.493 168.765  0.00  0.00    +0.000 A 
BRANCH  28  31
ATOM     31  O2  UNL     1     150.825 168.638 171.732  0.00  0.00    +0.000 OA
BRANCH  31  32
ATOM     32  C22 UNL     1     150.127 169.837 171.847  0.00  0.00    +0.000 C 
ATOM     33  F1  UNL     1     148.871 169.649 172.429  0.00  0.00    +0.000 F 
ATOM     34  F2  UNL     1     149.868 170.289 170.559  0.00  0.00    +0.000 F 
ENDBRANCH  31  32
ENDBRANCH  28  31
ENDBRANCH   1  25
TORSDOF 6
ENDMDL
MODEL 2
REMARK VINA RESULT:      -6.9      6.286     10.426
REMARK  Name = ./3D_structures\o48_MMV019724_3D.pdb
REMARK  6 active torsions:
REMARK  status: ('A' for Active; 'I' for Inactive)
REMARK    1  A    between atoms: N2_10  and  C8_11
REMARK    2  A    between atoms: C8_11  and  C9_12
REMARK    3  A    between atoms: C8_11  and  C18_23
REMARK    4  A    between atoms: C10_13  and  O1_14
REMARK    5  A    between atoms: C21_26  and  O2_27
REMARK    6  A    between atoms: O2_27  and  C22_28
REMARK                            x       y       z     vdW  Elec       q    Type
REMARK                         _______ _______ _______ _____ _____    ______ ____
ROOT
ATOM      1  C8  UNL     1     151.465 160.148 170.558  0.00  0.00    +0.000 C 
ENDROOT
BRANCH   1  11
ATOM      2  S1  UNL     1     150.082 162.403 167.307  0.00  0.00    +0.000 S 
ATOM      3  C1  UNL     1     150.344 161.644 168.997  0.00  0.00    +0.000 A 
ATOM      4  N1  UNL     1     149.396 162.313 169.625  0.00  0.00    +0.000 NA
ATOM      5  C2  UNL     1     148.615 163.178 169.123  0.00  0.00    +0.000 A 
ATOM      6  C3  UNL     1     148.724 163.498 167.764  0.00  0.00    +0.000 A 
ATOM      7  C4  UNL     1     147.948 164.407 167.108  0.00  0.00    +0.000 A 
ATOM      8  C5  UNL     1     146.955 165.105 167.785  0.00  0.00    +0.000 A 
ATOM      9  C6  UNL     1     146.826 164.814 169.113  0.00  0.00    +0.000 A 
ATOM     10  C7  UNL     1     147.598 163.906 169.773  0.00  0.00    +0.000 A 
ATOM     11  N2  UNL     1     151.301 160.703 169.250  0.00  0.00    +0.000 N 
ATOM     12  H5  UNL     1     151.927 160.379 168.478  0.00  0.00    +0.000 HD
ENDBRANCH   1  11
BRANCH   1  13
ATOM     13  C9  UNL     1     152.915 159.878 170.858  0.00  0.00    +0.000 A 
ATOM     14  C10 UNL     1     153.739 159.190 169.989  0.00  0.00    +0.000 A 
ATOM     15  C11 UNL     1     155.073 158.960 170.303  0.00  0.00    +0.000 A 
ATOM     16  N3  UNL     1     155.866 158.284 169.444  0.00  0.00    +0.000 NA
ATOM     17  C12 UNL     1     157.158 158.076 169.783  0.00  0.00    +0.000 A 
ATOM     18  C13 UNL     1     157.668 158.541 170.983  0.00  0.00    +0.000 A 
ATOM     19  C14 UNL     1     156.862 159.229 171.857  0.00  0.00    +0.000 A 
ATOM     20  C15 UNL     1     155.540 159.439 171.506  0.00  0.00    +0.000 A 
ATOM     21  C16 UNL     1     154.705 160.127 172.369  0.00  0.00    +0.000 A 
ATOM     22  C17 UNL     1     153.383 160.361 172.070  0.00  0.00    +0.000 A 
BRANCH  14  23
ATOM     23  O1  UNL     1     153.238 158.723 168.794  0.00  0.00    +0.000 OA
ATOM     24  H7  UNL     1     153.855 158.232 168.165  0.00  0.00    +0.000 HD
ENDBRANCH  14  23
ENDBRANCH   1  13
BRANCH   1  25
ATOM     25  C18 UNL     1     150.637 158.916 170.765  0.00  0.00    +0.000 A 
ATOM     26  C19 UNL     1     150.680 158.283 171.971  0.00  0.00    +0.000 A 
ATOM     27  C20 UNL     1     149.917 157.136 172.168  0.00  0.00    +0.000 A 
ATOM     28  C21 UNL     1     149.103 156.580 171.210  0.00  0.00    +0.000 A 
ATOM     29  C23 UNL     1     149.083 157.256 169.979  0.00  0.00    +0.000 A 
ATOM     30  C24 UNL     1     149.835 158.387 169.784  0.00  0.00    +0.000 A 
BRANCH  28  31
ATOM     31  O2  UNL     1     148.341 155.449 171.380  0.00  0.00    +0.000 OA
BRANCH  31  32
ATOM     32  C22 UNL     1     148.707 154.171 170.964  0.00  0.00    +0.000 C 
ATOM     33  F1  UNL     1     150.095 154.030 170.891  0.00  0.00    +0.000 F 
ATOM     34  F2  UNL     1     148.257 154.017 169.659  0.00  0.00    +0.000 F 
ENDBRANCH  31  32
ENDBRANCH  28  31
ENDBRANCH   1  25
TORSDOF 6
ENDMDL
MODEL 3
REMARK VINA RESULT:      -6.8     19.194     21.959
REMARK  Name = ./3D_structures\o48_MMV019724_3D.pdb
REMARK  6 active torsions:
REMARK  status: ('A' for Active; 'I' for Inactive)
REMARK    1  A    between atoms: N2_10  and  C8_11
REMARK    2  A    between atoms: C8_11  and  C9_12
REMARK    3  A    between atoms: C8_11  and  C18_23
REMARK    4  A    between atoms: C10_13  and  O1_14
REMARK    5  A    between atoms: C21_26  and  O2_27
REMARK    6  A    between atoms: O2_27  and  C22_28
REMARK                            x       y       z     vdW  Elec       q    Type
REMARK                         _______ _______ _______ _____ _____    ______ ____
ROOT
ATOM      1  C8  UNL     1     162.395 148.420 166.897  0.00  0.00    +0.000 C 
ENDROOT
BRANCH   1  11
ATOM      2  S1  UNL     1     158.928 150.147 165.294  0.00  0.00    +0.000 S 
ATOM      3  C1  UNL     1     160.313 148.979 165.764  0.00  0.00    +0.000 A 
ATOM      4  N1  UNL     1     159.867 147.926 165.105  0.00  0.00    +0.000 NA
ATOM      5  C2  UNL     1     158.811 147.855 164.407  0.00  0.00    +0.000 A 
ATOM      6  C3  UNL     1     157.990 148.984 164.285  0.00  0.00    +0.000 A 
ATOM      7  C4  UNL     1     156.832 149.036 163.566  0.00  0.00    +0.000 A 
ATOM      8  C5  UNL     1     156.377 147.916 162.881  0.00  0.00    +0.000 A 
ATOM      9  C6  UNL     1     157.157 146.800 162.983  0.00  0.00    +0.000 A 
ATOM     10  C7  UNL     1     158.315 146.742 163.699  0.00  0.00    +0.000 A 
ATOM     11  N2  UNL     1     161.356 149.346 166.565  0.00  0.00    +0.000 N 
ATOM     12  H5  UNL     1     161.401 150.318 166.945  0.00  0.00    +0.000 HD
ENDBRANCH   1  11
BRANCH   1  13
ATOM     13  C9  UNL     1     162.123 147.746 168.215  0.00  0.00    +0.000 A 
ATOM     14  C10 UNL     1     162.100 146.372 168.357  0.00  0.00    +0.000 A 
ATOM     15  C11 UNL     1     161.845 145.787 169.592  0.00  0.00    +0.000 A 
ATOM     16  N3  UNL     1     161.823 144.443 169.715  0.00  0.00    +0.000 NA
ATOM     17  C12 UNL     1     161.569 143.909 170.930  0.00  0.00    +0.000 A 
ATOM     18  C13 UNL     1     161.336 144.713 172.032  0.00  0.00    +0.000 A 
ATOM     19  C14 UNL     1     161.359 146.081 171.908  0.00  0.00    +0.000 A 
ATOM     20  C15 UNL     1     161.618 146.623 170.662  0.00  0.00    +0.000 A 
ATOM     21  C16 UNL     1     161.645 147.998 170.507  0.00  0.00    +0.000 A 
ATOM     22  C17 UNL     1     161.895 148.589 169.291  0.00  0.00    +0.000 A 
BRANCH  14  23
ATOM     23  O1  UNL     1     162.330 145.566 167.264  0.00  0.00    +0.000 OA
ATOM     24  H7  UNL     1     161.545 145.122 166.811  0.00  0.00    +0.000 HD
ENDBRANCH  14  23
ENDBRANCH   1  13
BRANCH   1  25
ATOM     25  C18 UNL     1     163.752 149.057 166.892  0.00  0.00    +0.000 A 
ATOM     26  C19 UNL     1     164.835 148.313 167.251  0.00  0.00    +0.000 A 
ATOM     27  C20 UNL     1     166.097 148.899 167.252  0.00  0.00    +0.000 A 
ATOM     28  C21 UNL     1     166.336 150.209 166.909  0.00  0.00    +0.000 A 
ATOM     29  C23 UNL     1     165.199 150.948 166.545  0.00  0.00    +0.000 A 
ATOM     30  C24 UNL     1     163.954 150.370 166.544  0.00  0.00    +0.000 A 
BRANCH  28  31
ATOM     31  O2  UNL     1     167.572 150.811 166.903  0.00  0.00    +0.000 OA
BRANCH  31  32
ATOM     32  C22 UNL     1     167.996 151.769 167.820  0.00  0.00    +0.000 C 
ATOM     33  F1  UNL     1     169.317 151.550 168.221  0.00  0.00    +0.000 F 
ATOM     34  F2  UNL     1     167.235 151.604 168.970  0.00  0.00    +0.000 F 
ENDBRANCH  31  32
ENDBRANCH  28  31
ENDBRANCH   1  25
TORSDOF 6
ENDMDL
MODEL 4
REMARK VINA RESULT:      -6.7      7.980     12.496
REMARK  Name = ./3D_structures\o48_MMV019724_3D.pdb
REMARK  6 active torsions:
REMARK  status: ('A' for Active; 'I' for Inactive)
REMARK    1  A    between atoms: N2_10  and  C8_11
REMARK    2  A    between atoms: C8_11  and  C9_12
REMARK    3  A    between atoms: C8_11  and  C18_23
REMARK    4  A    between atoms: C10_13  and  O1_14
REMARK    5  A    between atoms: C21_26  and  O2_27
REMARK    6  A    between atoms: O2_27  and  C22_28
REMARK                            x       y       z     vdW  Elec       q    Type
REMARK                         _______ _______ _______ _____ _____    ______ ____
ROOT
ATOM      1  C8  UNL     1     156.418 158.635 165.642  0.00  0.00    +0.000 C 
ENDROOT
BRANCH   1  11
ATOM      2  S1  UNL     1     156.248 162.511 164.056  0.00  0.00    +0.000 S 
ATOM      3  C1  UNL     1     155.845 160.865 164.851  0.00  0.00    +0.000 A 
ATOM      4  N1  UNL     1     154.567 161.103 165.080  0.00  0.00    +0.000 NA
ATOM      5  C2  UNL     1     153.929 162.163 164.801  0.00  0.00    +0.000 A 
ATOM      6  C3  UNL     1     154.598 163.227 164.182  0.00  0.00    +0.000 A 
ATOM      7  C4  UNL     1     154.026 164.415 163.833  0.00  0.00    +0.000 A 
ATOM      8  C5  UNL     1     152.680 164.650 164.084  0.00  0.00    +0.000 A 
ATOM      9  C6  UNL     1     152.002 163.630 164.687  0.00  0.00    +0.000 A 
ATOM     10  C7  UNL     1     152.567 162.441 165.037  0.00  0.00    +0.000 A 
ATOM     11  N2  UNL     1     156.772 159.879 165.031  0.00  0.00    +0.000 N 
ATOM     12  H5  UNL     1     157.757 160.031 164.720  0.00  0.00    +0.000 HD
ENDBRANCH   1  11
BRANCH   1  13
ATOM     13  C9  UNL     1     156.706 158.651 167.119  0.00  0.00    +0.000 A 
ATOM     14  C10 UNL     1     155.742 158.955 168.061  0.00  0.00    +0.000 A 
ATOM     15  C11 UNL     1     156.048 158.960 169.417  0.00  0.00    +0.000 A 
ATOM     16  N3  UNL     1     155.097 159.261 170.327  0.00  0.00    +0.000 NA
ATOM     17  C12 UNL     1     155.430 159.258 171.636  0.00  0.00    +0.000 A 
ATOM     18  C13 UNL     1     156.716 158.956 172.049  0.00  0.00    +0.000 A 
ATOM     19  C14 UNL     1     157.685 158.649 171.124  0.00  0.00    +0.000 A 
ATOM     20  C15 UNL     1     157.339 158.653 169.785  0.00  0.00    +0.000 A 
ATOM     21  C16 UNL     1     158.295 158.350 168.831  0.00  0.00    +0.000 A 
ATOM     22  C17 UNL     1     158.006 158.342 167.487  0.00  0.00    +0.000 A 
BRANCH  14  23
ATOM     23  O1  UNL     1     154.461 159.258 167.658  0.00  0.00    +0.000 OA
ATOM     24  H7  UNL     1     154.292 159.471 166.687  0.00  0.00    +0.000 HD
ENDBRANCH  14  23
ENDBRANCH   1  13
BRANCH   1  25
ATOM     25  C18 UNL     1     157.083 157.464 164.982  0.00  0.00    +0.000 A 
ATOM     26  C19 UNL     1     157.997 157.689 163.997  0.00  0.00    +0.000 A 
ATOM     27  C20 UNL     1     158.614 156.606 163.378  0.00  0.00    +0.000 A 
ATOM     28  C21 UNL     1     158.361 155.293 163.695  0.00  0.00    +0.000 A 
ATOM     29  C23 UNL     1     157.414 155.096 164.713  0.00  0.00    +0.000 A 
ATOM     30  C24 UNL     1     156.805 156.163 165.324  0.00  0.00    +0.000 A 
BRANCH  28  31
ATOM     31  O2  UNL     1     158.957 154.207 163.098  0.00  0.00    +0.000 OA
BRANCH  31  32
ATOM     32  C22 UNL     1     159.916 153.394 163.697  0.00  0.00    +0.000 C 
ATOM     33  F1  UNL     1     159.332 152.423 164.514  0.00  0.00    +0.000 F 
ATOM     34  F2  UNL     1     160.657 154.195 164.557  0.00  0.00    +0.000 F 
ENDBRANCH  31  32
ENDBRANCH  28  31
ENDBRANCH   1  25
TORSDOF 6
ENDMDL
MODEL 5
REMARK VINA RESULT:      -6.7      8.143     11.205
REMARK  Name = ./3D_structures\o48_MMV019724_3D.pdb
REMARK  6 active torsions:
REMARK  status: ('A' for Active; 'I' for Inactive)
REMARK    1  A    between atoms: N2_10  and  C8_11
REMARK    2  A    between atoms: C8_11  and  C9_12
REMARK    3  A    between atoms: C8_11  and  C18_23
REMARK    4  A    between atoms: C10_13  and  O1_14
REMARK    5  A    between atoms: C21_26  and  O2_27
REMARK    6  A    between atoms: O2_27  and  C22_28
REMARK                            x       y       z     vdW  Elec       q    Type
REMARK                         _______ _______ _______ _____ _____    ______ ____
ROOT
ATOM      1  C8  UNL     1     156.545 159.040 166.688  0.00  0.00    +0.000 C 
ENDROOT
BRANCH   1  11
ATOM      2  S1  UNL     1     155.876 158.562 170.798  0.00  0.00    +0.000 S 
ATOM      3  C1  UNL     1     156.325 159.224 169.106  0.00  0.00    +0.000 A 
ATOM      4  N1  UNL     1     156.723 160.419 169.500  0.00  0.00    +0.000 NA
ATOM      5  C2  UNL     1     156.744 160.861 170.688  0.00  0.00    +0.000 A 
ATOM      6  C3  UNL     1     156.311 160.038 171.736  0.00  0.00    +0.000 A 
ATOM      7  C4  UNL     1     156.285 160.396 173.052  0.00  0.00    +0.000 A 
ATOM      8  C5  UNL     1     156.704 161.659 173.449  0.00  0.00    +0.000 A 
ATOM      9  C6  UNL     1     157.131 162.484 172.448  0.00  0.00    +0.000 A 
ATOM     10  C7  UNL     1     157.160 162.133 171.132  0.00  0.00    +0.000 A 
ATOM     11  N2  UNL     1     156.186 158.494 167.961  0.00  0.00    +0.000 N 
ATOM     12  H5  UNL     1     155.812 157.519 168.009  0.00  0.00    +0.000 HD
ENDBRANCH   1  11
BRANCH   1  13
ATOM     13  C9  UNL     1     155.415 159.844 166.102  0.00  0.00    +0.000 A 
ATOM     14  C10 UNL     1     155.601 161.093 165.544  0.00  0.00    +0.000 A 
ATOM     15  C11 UNL     1     154.531 161.804 165.014  0.00  0.00    +0.000 A 
ATOM     16  N3  UNL     1     154.728 163.026 164.474  0.00  0.00    +0.000 NA
ATOM     17  C12 UNL     1     153.665 163.690 163.969  0.00  0.00    +0.000 A 
ATOM     18  C13 UNL     1     152.395 163.139 164.000  0.00  0.00    +0.000 A 
ATOM     19  C14 UNL     1     152.194 161.895 164.548  0.00  0.00    +0.000 A 
ATOM     20  C15 UNL     1     153.286 161.220 165.064  0.00  0.00    +0.000 A 
ATOM     21  C16 UNL     1     153.111 159.967 165.625  0.00  0.00    +0.000 A 
ATOM     22  C17 UNL     1     154.161 159.254 166.154  0.00  0.00    +0.000 A 
BRANCH  14  23
ATOM     23  O1  UNL     1     156.862 161.648 165.511  0.00  0.00    +0.000 OA
ATOM     24  H7  UNL     1     156.962 162.641 165.665  0.00  0.00    +0.000 HD
ENDBRANCH  14  23
ENDBRANCH   1  13
BRANCH   1  25
ATOM     25  C18 UNL     1     157.009 157.990 165.725  0.00  0.00    +0.000 A 
ATOM     26  C19 UNL     1     157.680 158.370 164.601  0.00  0.00    +0.000 A 
ATOM     27  C20 UNL     1     158.110 157.400 163.702  0.00  0.00    +0.000 A 
ATOM     28  C21 UNL     1     157.901 156.051 163.867  0.00  0.00    +0.000 A 
ATOM     29  C23 UNL     1     157.206 155.693 165.033  0.00  0.00    +0.000 A 
ATOM     30  C24 UNL     1     156.782 156.649 165.921  0.00  0.00    +0.000 A 
BRANCH  28  31
ATOM     31  O2  UNL     1     158.315 155.074 162.993  0.00  0.00    +0.000 OA
BRANCH  31  32
ATOM     32  C22 UNL     1     157.868 154.936 161.681  0.00  0.00    +0.000 C 
ATOM     33  F1  UNL     1     158.403 155.922 160.847  0.00  0.00    +0.000 F 
ATOM     34  F2  UNL     1     156.498 155.168 161.686  0.00  0.00    +0.000 F 
ENDBRANCH  31  32
ENDBRANCH  28  31
ENDBRANCH   1  25
TORSDOF 6
ENDMDL
MODEL 6
REMARK VINA RESULT:      -6.7      7.199     11.122
REMARK  Name = ./3D_structures\o48_MMV019724_3D.pdb
REMARK  6 active torsions:
REMARK  status: ('A' for Active; 'I' for Inactive)
REMARK    1  A    between atoms: N2_10  and  C8_11
REMARK    2  A    between atoms: C8_11  and  C9_12
REMARK    3  A    between atoms: C8_11  and  C18_23
REMARK    4  A    between atoms: C10_13  and  O1_14
REMARK    5  A    between atoms: C21_26  and  O2_27
REMARK    6  A    between atoms: O2_27  and  C22_28
REMARK                            x       y       z     vdW  Elec       q    Type
REMARK                         _______ _______ _______ _____ _____    ______ ____
ROOT
ATOM      1  C8  UNL     1     155.734 158.612 167.547  0.00  0.00    +0.000 C 
ENDROOT
BRANCH   1  11
ATOM      2  S1  UNL     1     155.837 160.233 171.411  0.00  0.00    +0.000 S 
ATOM      3  C1  UNL     1     155.310 159.462 169.789  0.00  0.00    +0.000 A 
ATOM      4  N1  UNL     1     154.028 159.341 170.076  0.00  0.00    +0.000 NA
ATOM      5  C2  UNL     1     153.454 159.679 171.156  0.00  0.00    +0.000 A 
ATOM      6  C3  UNL     1     154.210 160.248 172.188  0.00  0.00    +0.000 A 
ATOM      7  C4  UNL     1     153.713 160.651 173.392  0.00  0.00    +0.000 A 
ATOM      8  C5  UNL     1     152.361 160.513 173.679  0.00  0.00    +0.000 A 
ATOM      9  C6  UNL     1     151.598 159.960 172.691  0.00  0.00    +0.000 A 
ATOM     10  C7  UNL     1     152.089 159.556 171.485  0.00  0.00    +0.000 A 
ATOM     11  N2  UNL     1     156.182 159.200 168.772  0.00  0.00    +0.000 N 
ATOM     12  H5  UNL     1     157.195 159.431 168.885  0.00  0.00    +0.000 HD
ENDBRANCH   1  11
BRANCH   1  13
ATOM     13  C9  UNL     1     156.872 157.960 166.807  0.00  0.00    +0.000 A 
ATOM     14  C10 UNL     1     156.675 156.980 165.854  0.00  0.00    +0.000 A 
ATOM     15  C11 UNL     1     157.753 156.402 165.193  0.00  0.00    +0.000 A 
ATOM     16  N3  UNL     1     157.545 155.444 164.264  0.00  0.00    +0.000 NA
ATOM     17  C12 UNL     1     158.616 154.903 163.643  0.00  0.00    +0.000 A 
ATOM     18  C13 UNL     1     159.903 155.313 163.945  0.00  0.00    +0.000 A 
ATOM     19  C14 UNL     1     160.115 156.289 164.889  0.00  0.00    +0.000 A 
ATOM     20  C15 UNL     1     159.016 156.840 165.522  0.00  0.00    +0.000 A 
ATOM     21  C16 UNL     1     159.200 157.823 166.479  0.00  0.00    +0.000 A 
ATOM     22  C17 UNL     1     158.143 158.402 167.141  0.00  0.00    +0.000 A 
BRANCH  14  23
ATOM     23  O1  UNL     1     155.397 156.566 165.550  0.00  0.00    +0.000 OA
ATOM     24  H7  UNL     1     155.028 156.758 164.631  0.00  0.00    +0.000 HD
ENDBRANCH  14  23
ENDBRANCH   1  13
BRANCH   1  25
ATOM     25  C18 UNL     1     155.018 159.593 166.669  0.00  0.00    +0.000 A 
ATOM     26  C19 UNL     1     155.724 160.607 166.094  0.00  0.00    +0.000 A 
ATOM     27  C20 UNL     1     155.064 161.523 165.281  0.00  0.00    +0.000 A 
ATOM     28  C21 UNL     1     153.717 161.478 165.008  0.00  0.00    +0.000 A 
ATOM     29  C23 UNL     1     153.019 160.422 165.616  0.00  0.00    +0.000 A 
ATOM     30  C24 UNL     1     153.669 159.518 166.418  0.00  0.00    +0.000 A 
BRANCH  28  31
ATOM     31  O2  UNL     1     153.042 162.371 164.210  0.00  0.00    +0.000 OA
BRANCH  31  32
ATOM     32  C22 UNL     1     153.456 163.673 163.944  0.00  0.00    +0.000 C 
ATOM     33  F1  UNL     1     152.377 164.560 163.907  0.00  0.00    +0.000 F 
ATOM     34  F2  UNL     1     153.981 163.685 162.658  0.00  0.00    +0.000 F 
ENDBRANCH  31  32
ENDBRANCH  28  31
ENDBRANCH   1  25
TORSDOF 6
ENDMDL
MODEL 7
REMARK VINA RESULT:      -6.7      4.012      7.195
REMARK  Name = ./3D_structures\o48_MMV019724_3D.pdb
REMARK  6 active torsions:
REMARK  status: ('A' for Active; 'I' for Inactive)
REMARK    1  A    between atoms: N2_10  and  C8_11
REMARK    2  A    between atoms: C8_11  and  C9_12
REMARK    3  A    between atoms: C8_11  and  C18_23
REMARK    4  A    between atoms: C10_13  and  O1_14
REMARK    5  A    between atoms: C21_26  and  O2_27
REMARK    6  A    between atoms: O2_27  and  C22_28
REMARK                            x       y       z     vdW  Elec       q    Type
REMARK                         _______ _______ _______ _____ _____    ______ ____
ROOT
ATOM      1  C8  UNL     1     150.435 164.561 167.796  0.00  0.00    +0.000 C 
ENDROOT
BRANCH   1  11
ATOM      2  S1  UNL     1     150.784 166.165 171.653  0.00  0.00    +0.000 S 
ATOM      3  C1  UNL     1     150.615 165.927 169.804  0.00  0.00    +0.000 A 
ATOM      4  N1  UNL     1     150.579 167.205 169.478  0.00  0.00    +0.000 NA
ATOM      5  C2  UNL     1     150.645 168.194 170.269  0.00  0.00    +0.000 A 
ATOM      6  C3  UNL     1     150.773 167.968 171.645  0.00  0.00    +0.000 A 
ATOM      7  C4  UNL     1     150.854 168.944 172.595  0.00  0.00    +0.000 A 
ATOM      8  C5  UNL     1     150.811 170.284 172.234  0.00  0.00    +0.000 A 
ATOM      9  C6  UNL     1     150.686 170.535 170.898  0.00  0.00    +0.000 A 
ATOM     10  C7  UNL     1     150.606 169.566 169.944  0.00  0.00    +0.000 A 
ATOM     11  N2  UNL     1     150.563 164.697 169.215  0.00  0.00    +0.000 N 
ATOM     12  H5  UNL     1     150.616 163.836 169.804  0.00  0.00    +0.000 HD
ENDBRANCH   1  11
BRANCH   1  13
ATOM     13  C9  UNL     1     148.990 164.575 167.375  0.00  0.00    +0.000 A 
ATOM     14  C10 UNL     1     148.372 165.704 166.874  0.00  0.00    +0.000 A 
ATOM     15  C11 UNL     1     147.034 165.677 166.496  0.00  0.00    +0.000 A 
ATOM     16  N3  UNL     1     146.443 166.789 166.010  0.00  0.00    +0.000 NA
ATOM     17  C12 UNL     1     145.140 166.726 165.655  0.00  0.00    +0.000 A 
ATOM     18  C13 UNL     1     144.418 165.552 165.783  0.00  0.00    +0.000 A 
ATOM     19  C14 UNL     1     145.019 164.420 166.277  0.00  0.00    +0.000 A 
ATOM     20  C15 UNL     1     146.352 164.489 166.639  0.00  0.00    +0.000 A 
ATOM     21  C16 UNL     1     146.983 163.364 167.142  0.00  0.00    +0.000 A 
ATOM     22  C17 UNL     1     148.305 163.379 167.520  0.00  0.00    +0.000 A 
BRANCH  14  23
ATOM     23  O1  UNL     1     149.084 166.876 166.745  0.00  0.00    +0.000 OA
ATOM     24  H7  UNL     1     150.085 166.856 166.874  0.00  0.00    +0.000 HD
ENDBRANCH  14  23
ENDBRANCH   1  13
BRANCH   1  25
ATOM     25  C18 UNL     1     151.132 163.342 167.272  0.00  0.00    +0.000 A 
ATOM     26  C19 UNL     1     151.494 162.359 168.144  0.00  0.00    +0.000 A 
ATOM     27  C20 UNL     1     152.145 161.227 167.664  0.00  0.00    +0.000 A 
ATOM     28  C21 UNL     1     152.458 161.023 166.341  0.00  0.00    +0.000 A 
ATOM     29  C23 UNL     1     152.072 162.054 165.470  0.00  0.00    +0.000 A 
ATOM     30  C24 UNL     1     151.430 163.171 165.942  0.00  0.00    +0.000 A 
BRANCH  28  31
ATOM     31  O2  UNL     1     153.100 159.914 165.842  0.00  0.00    +0.000 OA
BRANCH  31  32
ATOM     32  C22 UNL     1     154.101 159.208 166.504  0.00  0.00    +0.000 C 
ATOM     33  F1  UNL     1     154.600 158.163 165.722  0.00  0.00    +0.000 F 
ATOM     34  F2  UNL     1     153.515 158.593 167.603  0.00  0.00    +0.000 F 
ENDBRANCH  31  32
ENDBRANCH  28  31
ENDBRANCH   1  25
TORSDOF 6
ENDMDL
MODEL 8
REMARK VINA RESULT:      -6.6      9.031     12.894
REMARK  Name = ./3D_structures\o48_MMV019724_3D.pdb
REMARK  6 active torsions:
REMARK  status: ('A' for Active; 'I' for Inactive)
REMARK    1  A    between atoms: N2_10  and  C8_11
REMARK    2  A    between atoms: C8_11  and  C9_12
REMARK    3  A    between atoms: C8_11  and  C18_23
REMARK    4  A    between atoms: C10_13  and  O1_14
REMARK    5  A    between atoms: C21_26  and  O2_27
REMARK    6  A    between atoms: O2_27  and  C22_28
REMARK                            x       y       z     vdW  Elec       q    Type
REMARK                         _______ _______ _______ _____ _____    ______ ____
ROOT
ATOM      1  C8  UNL     1     158.087 156.835 165.171  0.00  0.00    +0.000 C 
ENDROOT
BRANCH   1  11
ATOM      2  S1  UNL     1     158.261 154.306 161.833  0.00  0.00    +0.000 S 
ATOM      3  C1  UNL     1     158.011 155.027 163.542  0.00  0.00    +0.000 A 
ATOM      4  N1  UNL     1     157.551 153.931 164.115  0.00  0.00    +0.000 NA
ATOM      5  C2  UNL     1     157.376 152.801 163.566  0.00  0.00    +0.000 A 
ATOM      6  C3  UNL     1     157.689 152.639 162.210  0.00  0.00    +0.000 A 
ATOM      7  C4  UNL     1     157.546 151.479 161.506  0.00  0.00    +0.000 A 
ATOM      8  C5  UNL     1     157.057 150.335 162.124  0.00  0.00    +0.000 A 
ATOM      9  C6  UNL     1     156.743 150.463 163.447  0.00  0.00    +0.000 A 
ATOM     10  C7  UNL     1     156.884 151.619 164.155  0.00  0.00    +0.000 A 
ATOM     11  N2  UNL     1     158.292 156.327 163.849  0.00  0.00    +0.000 N 
ATOM     12  H5  UNL     1     158.662 156.967 163.110  0.00  0.00    +0.000 HD
ENDBRANCH   1  11
BRANCH   1  13
ATOM     13  C9  UNL     1     157.085 157.958 165.175  0.00  0.00    +0.000 A 
ATOM     14  C10 UNL     1     155.950 157.939 165.961  0.00  0.00    +0.000 A 
ATOM     15  C11 UNL     1     155.048 158.997 165.935  0.00  0.00    +0.000 A 
ATOM     16  N3  UNL     1     153.941 158.964 166.708  0.00  0.00    +0.000 NA
ATOM     17  C12 UNL     1     153.084 160.008 166.656  0.00  0.00    +0.000 A 
ATOM     18  C13 UNL     1     153.326 161.094 165.832  0.00  0.00    +0.000 A 
ATOM     19  C14 UNL     1     154.453 161.129 165.046  0.00  0.00    +0.000 A 
ATOM     20  C15 UNL     1     155.326 160.057 165.102  0.00  0.00    +0.000 A 
ATOM     21  C16 UNL     1     156.468 160.064 164.320  0.00  0.00    +0.000 A 
ATOM     22  C17 UNL     1     157.367 159.025 164.335  0.00  0.00    +0.000 A 
BRANCH  14  23
ATOM     23  O1  UNL     1     155.702 156.862 166.782  0.00  0.00    +0.000 OA
ATOM     24  H7  UNL     1     154.745 156.587 166.951  0.00  0.00    +0.000 HD
ENDBRANCH  14  23
ENDBRANCH   1  13
BRANCH   1  25
ATOM     25  C18 UNL     1     159.367 157.259 165.825  0.00  0.00    +0.000 A 
ATOM     26  C19 UNL     1     160.552 156.957 165.224  0.00  0.00    +0.000 A 
ATOM     27  C20 UNL     1     161.744 157.345 165.828  0.00  0.00    +0.000 A 
ATOM     28  C21 UNL     1     161.815 158.028 167.019  0.00  0.00    +0.000 A 
ATOM     29  C23 UNL     1     160.577 158.323 167.613  0.00  0.00    +0.000 A 
ATOM     30  C24 UNL     1     159.401 157.941 167.018  0.00  0.00    +0.000 A 
BRANCH  28  31
ATOM     31  O2  UNL     1     162.978 158.421 167.637  0.00  0.00    +0.000 OA
BRANCH  31  32
ATOM     32  C22 UNL     1     164.094 157.610 167.825  0.00  0.00    +0.000 C 
ATOM     33  F1  UNL     1     164.794 157.956 168.984  0.00  0.00    +0.000 F 
ATOM     34  F2  UNL     1     164.972 157.866 166.779  0.00  0.00    +0.000 F 
ENDBRANCH  31  32
ENDBRANCH  28  31
ENDBRANCH   1  25
TORSDOF 6
ENDMDL
MODEL 9
REMARK VINA RESULT:      -6.6      2.020      2.476
REMARK  Name = ./3D_structures\o48_MMV019724_3D.pdb
REMARK  6 active torsions:
REMARK  status: ('A' for Active; 'I' for Inactive)
REMARK    1  A    between atoms: N2_10  and  C8_11
REMARK    2  A    between atoms: C8_11  and  C9_12
REMARK    3  A    between atoms: C8_11  and  C18_23
REMARK    4  A    between atoms: C10_13  and  O1_14
REMARK    5  A    between atoms: C21_26  and  O2_27
REMARK    6  A    between atoms: O2_27  and  C22_28
REMARK                            x       y       z     vdW  Elec       q    Type
REMARK                         _______ _______ _______ _____ _____    ______ ____
ROOT
ATOM      1  C8  UNL     1     149.981 164.751 169.917  0.00  0.00    +0.000 C 
ENDROOT
BRANCH   1  11
ATOM      2  S1  UNL     1     152.543 161.844 168.319  0.00  0.00    +0.000 S 
ATOM      3  C1  UNL     1     151.239 162.760 169.302  0.00  0.00    +0.000 A 
ATOM      4  N1  UNL     1     150.820 161.730 170.013  0.00  0.00    +0.000 NA
ATOM      5  C2  UNL     1     151.249 160.538 169.954  0.00  0.00    +0.000 A 
ATOM      6  C3  UNL     1     152.278 160.221 169.057  0.00  0.00    +0.000 A 
ATOM      7  C4  UNL     1     152.823 158.981 168.898  0.00  0.00    +0.000 A 
ATOM      8  C5  UNL     1     152.368 157.908 169.654  0.00  0.00    +0.000 A 
ATOM      9  C6  UNL     1     151.364 158.188 170.536  0.00  0.00    +0.000 A 
ATOM     10  C7  UNL     1     150.815 159.424 170.700  0.00  0.00    +0.000 A 
ATOM     11  N2  UNL     1     150.987 164.092 169.142  0.00  0.00    +0.000 N 
ATOM     12  H5  UNL     1     151.533 164.643 168.443  0.00  0.00    +0.000 HD
ENDBRANCH   1  11
BRANCH   1  13
ATOM     13  C9  UNL     1     148.630 164.646 169.261  0.00  0.00    +0.000 A 
ATOM     14  C10 UNL     1     148.426 164.939 167.927  0.00  0.00    +0.000 A 
ATOM     15  C11 UNL     1     147.162 164.830 167.359  0.00  0.00    +0.000 A 
ATOM     16  N3  UNL     1     146.976 165.122 166.053  0.00  0.00    +0.000 NA
ATOM     17  C12 UNL     1     145.734 165.007 165.535  0.00  0.00    +0.000 A 
ATOM     18  C13 UNL     1     144.666 164.599 166.316  0.00  0.00    +0.000 A 
ATOM     19  C14 UNL     1     144.854 164.301 167.644  0.00  0.00    +0.000 A 
ATOM     20  C15 UNL     1     146.127 164.421 168.170  0.00  0.00    +0.000 A 
ATOM     21  C16 UNL     1     146.345 164.129 169.506  0.00  0.00    +0.000 A 
ATOM     22  C17 UNL     1     147.590 164.234 170.080  0.00  0.00    +0.000 A 
BRANCH  14  23
ATOM     23  O1  UNL     1     149.483 165.346 167.144  0.00  0.00    +0.000 OA
ATOM     24  H7  UNL     1     150.398 165.423 167.562  0.00  0.00    +0.000 HD
ENDBRANCH  14  23
ENDBRANCH   1  13
BRANCH   1  25
ATOM     25  C18 UNL     1     150.325 166.182 170.203  0.00  0.00    +0.000 A 
ATOM     26  C19 UNL     1     149.612 166.861 171.145  0.00  0.00    +0.000 A 
ATOM     27  C20 UNL     1     149.925 168.190 171.412  0.00  0.00    +0.000 A 
ATOM     28  C21 UNL     1     150.926 168.886 170.777  0.00  0.00    +0.000 A 
ATOM     29  C23 UNL     1     151.641 168.159 169.812  0.00  0.00    +0.000 A 
ATOM     30  C24 UNL     1     151.333 166.848 169.548  0.00  0.00    +0.000 A 
BRANCH  28  31
ATOM     31  O2  UNL     1     151.254 170.199 171.023  0.00  0.00    +0.000 OA
BRANCH  31  32
ATOM     32  C22 UNL     1     150.516 171.298 170.591  0.00  0.00    +0.000 C 
ATOM     33  F1  UNL     1     149.350 171.464 171.343  0.00  0.00    +0.000 F 
ATOM     34  F2  UNL     1     150.082 171.023 169.301  0.00  0.00    +0.000 F 
ENDBRANCH  31  32
ENDBRANCH  28  31
ENDBRANCH   1  25
TORSDOF 6
ENDMDL
