MODEL 1
REMARK VINA RESULT:      -5.6      0.000      0.000
REMARK  Name = ./3D_structures\o50_MMV637413_3D.pdb
REMARK  6 active torsions:
REMARK  status: ('A' for Active; 'I' for Inactive)
REMARK    1  A    between atoms: C2_4  and  N5_20
REMARK    2  A    between atoms: N3_8  and  C6_11
REMARK    3  A    between atoms: C7_13  and  C8_14
REMARK    4  A    between atoms: C8_14  and  O2_15
REMARK    5  A    between atoms: C9_16  and  O4_19
REMARK    6  A    between atoms: C10_17  and  O3_18
REMARK                            x       y       z     vdW  Elec       q    Type
REMARK                         _______ _______ _______ _____ _____    ______ ____
ROOT
ATOM      1  F1  UNL     1     145.556 168.373 165.402  0.00  0.00    +0.000 F 
ATOM      2  C1  UNL     1     145.135 167.141 165.821  0.00  0.00    +0.000 A 
ATOM      3  N1  UNL     1     143.939 166.733 165.382  0.00  0.00    +0.000 NA
ATOM      4  C2  UNL     1     143.467 165.549 165.747  0.00  0.00    +0.000 A 
ATOM      5  C3  UNL     1     144.236 164.758 166.585  0.00  0.00    +0.000 A 
ATOM      6  N2  UNL     1     144.034 163.536 167.120  0.00  0.00    +0.000 NA
ATOM      7  C4  UNL     1     145.117 163.240 167.869  0.00  0.00    +0.000 A 
ATOM      8  N3  UNL     1     146.001 164.246 167.823  0.00  0.00    +0.000 N 
ATOM      9  C5  UNL     1     145.471 165.186 167.037  0.00  0.00    +0.000 A 
ATOM     10  N4  UNL     1     145.901 166.387 166.639  0.00  0.00    +0.000 NA
ENDROOT
BRANCH   8  11
ATOM     11  C6  UNL     1     147.251 164.294 168.484  0.00  0.00    +0.000 C 
ATOM     12  O1  UNL     1     148.307 164.759 167.708  0.00  0.00    +0.000 OA
ATOM     13  C7  UNL     1     149.360 164.915 168.579  0.00  0.00    +0.000 C 
ATOM     14  C9  UNL     1     148.796 165.166 169.955  0.00  0.00    +0.000 C 
ATOM     15  C10 UNL     1     147.296 165.267 169.642  0.00  0.00    +0.000 C 
BRANCH  15  16
ATOM     16  O3  UNL     1     146.519 164.864 170.701  0.00  0.00    +0.000 OA
ATOM     17  H9  UNL     1     145.595 164.688 170.370  0.00  0.00    +0.000 HD
ENDBRANCH  15  16
BRANCH  14  18
ATOM     18  O4  UNL     1     148.955 163.992 170.687  0.00  0.00    +0.000 OA
ATOM     19  H10 UNL     1     148.140 163.757 171.217  0.00  0.00    +0.000 HD
ENDBRANCH  14  18
BRANCH  13  20
ATOM     20  C8  UNL     1     150.214 166.122 168.227  0.00  0.00    +0.000 C 
BRANCH  20  21
ATOM     21  O2  UNL     1     149.722 166.805 167.132  0.00  0.00    +0.000 OA
ATOM     22  H6  UNL     1     150.372 166.881 166.414  0.00  0.00    +0.000 HD
ENDBRANCH  20  21
ENDBRANCH  13  20
ENDBRANCH   8  11
BRANCH   4  23
ATOM     23  N5  UNL     1     142.210 165.036 165.329  0.00  0.00    +0.000 N 
ATOM     24  H11 UNL     1     142.185 164.180 164.704  0.00  0.00    +0.000 HD
ATOM     25  H12 UNL     1     141.305 165.462 165.606  0.00  0.00    +0.000 HD
ENDBRANCH   4  23
TORSDOF 6
ENDMDL
MODEL 2
REMARK VINA RESULT:      -5.3      1.622      2.906
REMARK  Name = ./3D_structures\o50_MMV637413_3D.pdb
REMARK  6 active torsions:
REMARK  status: ('A' for Active; 'I' for Inactive)
REMARK    1  A    between atoms: C2_4  and  N5_20
REMARK    2  A    between atoms: N3_8  and  C6_11
REMARK    3  A    between atoms: C7_13  and  C8_14
REMARK    4  A    between atoms: C8_14  and  O2_15
REMARK    5  A    between atoms: C9_16  and  O4_19
REMARK    6  A    between atoms: C10_17  and  O3_18
REMARK                            x       y       z     vdW  Elec       q    Type
REMARK                         _______ _______ _______ _____ _____    ______ ____
ROOT
ATOM      1  F1  UNL     1     145.224 166.618 165.358  0.00  0.00    +0.000 F 
ATOM      2  C1  UNL     1     145.248 165.710 166.382  0.00  0.00    +0.000 A 
ATOM      3  N1  UNL     1     144.244 164.827 166.426  0.00  0.00    +0.000 NA
ATOM      4  C2  UNL     1     144.203 163.917 167.390  0.00  0.00    +0.000 A 
ATOM      5  C3  UNL     1     145.214 163.909 168.337  0.00  0.00    +0.000 A 
ATOM      6  N2  UNL     1     145.445 163.128 169.412  0.00  0.00    +0.000 NA
ATOM      7  C4  UNL     1     146.585 163.563 169.989  0.00  0.00    +0.000 A 
ATOM      8  N3  UNL     1     147.083 164.602 169.305  0.00  0.00    +0.000 N 
ATOM      9  C5  UNL     1     146.249 164.824 168.287  0.00  0.00    +0.000 A 
ATOM     10  N4  UNL     1     146.244 165.720 167.294  0.00  0.00    +0.000 NA
ENDROOT
BRANCH   8  11
ATOM     11  C6  UNL     1     148.264 165.318 169.611  0.00  0.00    +0.000 C 
ATOM     12  O1  UNL     1     148.740 165.138 170.905  0.00  0.00    +0.000 OA
ATOM     13  C7  UNL     1     149.974 165.745 170.928  0.00  0.00    +0.000 C 
ATOM     14  C9  UNL     1     150.530 165.731 169.526  0.00  0.00    +0.000 C 
ATOM     15  C10 UNL     1     149.468 164.892 168.799  0.00  0.00    +0.000 C 
BRANCH  15  16
ATOM     16  O3  UNL     1     149.359 165.232 167.473  0.00  0.00    +0.000 OA
ATOM     17  H9  UNL     1     148.456 165.626 167.318  0.00  0.00    +0.000 HD
ENDBRANCH  15  16
BRANCH  14  18
ATOM     18  O4  UNL     1     150.408 167.022 169.020  0.00  0.00    +0.000 OA
ATOM     19  H10 UNL     1     149.861 167.615 169.611  0.00  0.00    +0.000 HD
ENDBRANCH  14  18
BRANCH  13  20
ATOM     20  C8  UNL     1     150.963 164.989 171.801  0.00  0.00    +0.000 C 
BRANCH  20  21
ATOM     21  O2  UNL     1     150.633 165.059 173.140  0.00  0.00    +0.000 OA
ATOM     22  H6  UNL     1     149.680 164.952 173.297  0.00  0.00    +0.000 HD
ENDBRANCH  20  21
ENDBRANCH  13  20
ENDBRANCH   8  11
BRANCH   4  23
ATOM     23  N5  UNL     1     143.177 162.944 167.513  0.00  0.00    +0.000 N 
ATOM     24  H11 UNL     1     143.311 161.994 167.061  0.00  0.00    +0.000 HD
ATOM     25  H12 UNL     1     142.293 163.115 168.028  0.00  0.00    +0.000 HD
ENDBRANCH   4  23
TORSDOF 6
ENDMDL
MODEL 3
REMARK VINA RESULT:      -5.1      2.258      3.033
REMARK  Name = ./3D_structures\o50_MMV637413_3D.pdb
REMARK  6 active torsions:
REMARK  status: ('A' for Active; 'I' for Inactive)
REMARK    1  A    between atoms: C2_4  and  N5_20
REMARK    2  A    between atoms: N3_8  and  C6_11
REMARK    3  A    between atoms: C7_13  and  C8_14
REMARK    4  A    between atoms: C8_14  and  O2_15
REMARK    5  A    between atoms: C9_16  and  O4_19
REMARK    6  A    between atoms: C10_17  and  O3_18
REMARK                            x       y       z     vdW  Elec       q    Type
REMARK                         _______ _______ _______ _____ _____    ______ ____
ROOT
ATOM      1  F1  UNL     1     143.769 161.909 166.322  0.00  0.00    +0.000 F 
ATOM      2  C1  UNL     1     144.136 163.214 166.133  0.00  0.00    +0.000 A 
ATOM      3  N1  UNL     1     143.155 164.078 165.849  0.00  0.00    +0.000 NA
ATOM      4  C2  UNL     1     143.437 165.359 165.653  0.00  0.00    +0.000 A 
ATOM      5  C3  UNL     1     144.757 165.770 165.749  0.00  0.00    +0.000 A 
ATOM      6  N2  UNL     1     145.345 166.975 165.605  0.00  0.00    +0.000 NA
ATOM      7  C4  UNL     1     146.669 166.803 165.807  0.00  0.00    +0.000 A 
ATOM      8  N3  UNL     1     146.934 165.517 166.075  0.00  0.00    +0.000 N 
ATOM      9  C5  UNL     1     145.766 164.871 166.042  0.00  0.00    +0.000 A 
ATOM     10  N4  UNL     1     145.428 163.592 166.231  0.00  0.00    +0.000 NA
ENDROOT
BRANCH   8  11
ATOM     11  C6  UNL     1     148.207 164.961 166.340  0.00  0.00    +0.000 C 
ATOM     12  O1  UNL     1     149.283 165.729 165.908  0.00  0.00    +0.000 OA
ATOM     13  C7  UNL     1     150.400 165.120 166.432  0.00  0.00    +0.000 C 
ATOM     14  C9  UNL     1     149.989 164.384 167.683  0.00  0.00    +0.000 C 
ATOM     15  C10 UNL     1     148.524 164.825 167.813  0.00  0.00    +0.000 C 
BRANCH  15  16
ATOM     16  O3  UNL     1     147.751 163.874 168.434  0.00  0.00    +0.000 OA
ATOM     17  H9  UNL     1     148.280 163.032 168.507  0.00  0.00    +0.000 HD
ENDBRANCH  15  16
BRANCH  14  18
ATOM     18  O4  UNL     1     149.953 163.028 167.371  0.00  0.00    +0.000 OA
ATOM     19  H10 UNL     1     150.860 162.606 167.388  0.00  0.00    +0.000 HD
ENDBRANCH  14  18
BRANCH  13  20
ATOM     20  C8  UNL     1     151.457 166.132 166.845  0.00  0.00    +0.000 C 
BRANCH  20  21
ATOM     21  O2  UNL     1     151.922 166.865 165.770  0.00  0.00    +0.000 OA
ATOM     22  H6  UNL     1     152.113 167.789 166.001  0.00  0.00    +0.000 HD
ENDBRANCH  20  21
ENDBRANCH  13  20
ENDBRANCH   8  11
BRANCH   4  23
ATOM     23  N5  UNL     1     142.461 166.345 165.348  0.00  0.00    +0.000 N 
ATOM     24  H11 UNL     1     141.979 166.856 166.142  0.00  0.00    +0.000 HD
ATOM     25  H12 UNL     1     142.192 166.593 164.378  0.00  0.00    +0.000 HD
ENDBRANCH   4  23
TORSDOF 6
ENDMDL
MODEL 4
REMARK VINA RESULT:      -5.1      3.835      6.014
REMARK  Name = ./3D_structures\o50_MMV637413_3D.pdb
REMARK  6 active torsions:
REMARK  status: ('A' for Active; 'I' for Inactive)
REMARK    1  A    between atoms: C2_4  and  N5_20
REMARK    2  A    between atoms: N3_8  and  C6_11
REMARK    3  A    between atoms: C7_13  and  C8_14
REMARK    4  A    between atoms: C8_14  and  O2_15
REMARK    5  A    between atoms: C9_16  and  O4_19
REMARK    6  A    between atoms: C10_17  and  O3_18
REMARK                            x       y       z     vdW  Elec       q    Type
REMARK                         _______ _______ _______ _____ _____    ______ ____
ROOT
ATOM      1  F1  UNL     1     148.891 162.068 167.968  0.00  0.00    +0.000 F 
ATOM      2  C1  UNL     1     148.460 163.272 167.481  0.00  0.00    +0.000 A 
ATOM      3  N1  UNL     1     149.242 164.331 167.718  0.00  0.00    +0.000 NA
ATOM      4  C2  UNL     1     148.889 165.530 167.275  0.00  0.00    +0.000 A 
ATOM      5  C3  UNL     1     147.702 165.652 166.570  0.00  0.00    +0.000 A 
ATOM      6  N2  UNL     1     147.086 166.711 166.006  0.00  0.00    +0.000 NA
ATOM      7  C4  UNL     1     145.946 166.260 165.442  0.00  0.00    +0.000 A 
ATOM      8  N3  UNL     1     145.824 164.939 165.635  0.00  0.00    +0.000 N 
ATOM      9  C5  UNL     1     146.897 164.554 166.328  0.00  0.00    +0.000 A 
ATOM     10  N4  UNL     1     147.300 163.368 166.796  0.00  0.00    +0.000 NA
ENDROOT
BRANCH   8  11
ATOM     11  C6  UNL     1     144.760 164.122 165.188  0.00  0.00    +0.000 C 
ATOM     12  O1  UNL     1     145.120 163.137 164.276  0.00  0.00    +0.000 OA
ATOM     13  C7  UNL     1     144.004 162.345 164.132  0.00  0.00    +0.000 C 
ATOM     14  C9  UNL     1     143.192 162.445 165.399  0.00  0.00    +0.000 C 
ATOM     15  C10 UNL     1     144.129 163.285 166.280  0.00  0.00    +0.000 C 
BRANCH  15  16
ATOM     16  O3  UNL     1     143.436 164.043 167.193  0.00  0.00    +0.000 OA
ATOM     17  H9  UNL     1     143.214 164.921 166.775  0.00  0.00    +0.000 HD
ENDBRANCH  15  16
BRANCH  14  18
ATOM     18  O4  UNL     1     142.096 163.257 165.125  0.00  0.00    +0.000 OA
ATOM     19  H10 UNL     1     142.229 163.819 164.308  0.00  0.00    +0.000 HD
ENDBRANCH  14  18
BRANCH  13  20
ATOM     20  C8  UNL     1     144.366 160.879 163.955  0.00  0.00    +0.000 C 
BRANCH  20  21
ATOM     21  O2  UNL     1     145.414 160.706 163.072  0.00  0.00    +0.000 OA
ATOM     22  H6  UNL     1     145.136 160.767 162.143  0.00  0.00    +0.000 HD
ENDBRANCH  20  21
ENDBRANCH  13  20
ENDBRANCH   8  11
BRANCH   4  23
ATOM     23  N5  UNL     1     149.656 166.706 167.481  0.00  0.00    +0.000 N 
ATOM     24  H11 UNL     1     150.440 166.935 166.805  0.00  0.00    +0.000 HD
ATOM     25  H12 UNL     1     149.489 167.360 168.269  0.00  0.00    +0.000 HD
ENDBRANCH   4  23
TORSDOF 6
ENDMDL
MODEL 5
REMARK VINA RESULT:      -5.0      3.639      5.777
REMARK  Name = ./3D_structures\o50_MMV637413_3D.pdb
REMARK  6 active torsions:
REMARK  status: ('A' for Active; 'I' for Inactive)
REMARK    1  A    between atoms: C2_4  and  N5_20
REMARK    2  A    between atoms: N3_8  and  C6_11
REMARK    3  A    between atoms: C7_13  and  C8_14
REMARK    4  A    between atoms: C8_14  and  O2_15
REMARK    5  A    between atoms: C9_16  and  O4_19
REMARK    6  A    between atoms: C10_17  and  O3_18
REMARK                            x       y       z     vdW  Elec       q    Type
REMARK                         _______ _______ _______ _____ _____    ______ ____
ROOT
ATOM      1  F1  UNL     1     149.290 166.107 165.742  0.00  0.00    +0.000 F 
ATOM      2  C1  UNL     1     148.373 165.556 166.595  0.00  0.00    +0.000 A 
ATOM      3  N1  UNL     1     148.692 165.544 167.894  0.00  0.00    +0.000 NA
ATOM      4  C2  UNL     1     147.850 165.026 168.778  0.00  0.00    +0.000 A 
ATOM      5  C3  UNL     1     146.649 164.505 168.324  0.00  0.00    +0.000 A 
ATOM      6  N2  UNL     1     145.613 163.924 168.963  0.00  0.00    +0.000 NA
ATOM      7  C4  UNL     1     144.695 163.600 168.027  0.00  0.00    +0.000 A 
ATOM      8  N3  UNL     1     145.124 163.963 166.811  0.00  0.00    +0.000 N 
ATOM      9  C5  UNL     1     146.326 164.520 166.980  0.00  0.00    +0.000 A 
ATOM     10  N4  UNL     1     147.208 165.054 166.131  0.00  0.00    +0.000 NA
ENDROOT
BRANCH   8  11
ATOM     11  C6  UNL     1     144.433 163.784 165.590  0.00  0.00    +0.000 C 
ATOM     12  O1  UNL     1     145.029 162.892 164.705  0.00  0.00    +0.000 OA
ATOM     13  C7  UNL     1     144.112 162.714 163.694  0.00  0.00    +0.000 C 
ATOM     14  C9  UNL     1     142.737 162.971 164.257  0.00  0.00    +0.000 C 
ATOM     15  C10 UNL     1     143.062 163.162 165.746  0.00  0.00    +0.000 C 
BRANCH  15  16
ATOM     16  O3  UNL     1     142.169 164.001 166.367  0.00  0.00    +0.000 OA
ATOM     17  H9  UNL     1     141.964 163.635 167.272  0.00  0.00    +0.000 HD
ENDBRANCH  15  16
BRANCH  14  18
ATOM     18  O4  UNL     1     142.328 164.218 163.794  0.00  0.00    +0.000 OA
ATOM     19  H10 UNL     1     142.000 164.812 164.529  0.00  0.00    +0.000 HD
ENDBRANCH  14  18
BRANCH  13  20
ATOM     20  C8  UNL     1     144.113 161.286 163.172  0.00  0.00    +0.000 C 
BRANCH  20  21
ATOM     21  O2  UNL     1     145.390 160.765 163.087  0.00  0.00    +0.000 OA
ATOM     22  H6  UNL     1     145.846 160.750 163.945  0.00  0.00    +0.000 HD
ENDBRANCH  20  21
ENDBRANCH  13  20
ENDBRANCH   8  11
BRANCH   4  23
ATOM     23  N5  UNL     1     148.106 164.972 170.174  0.00  0.00    +0.000 N 
ATOM     24  H11 UNL     1     148.259 165.876 170.705  0.00  0.00    +0.000 HD
ATOM     25  H12 UNL     1     148.152 164.083 170.706  0.00  0.00    +0.000 HD
ENDBRANCH   4  23
TORSDOF 6
ENDMDL
MODEL 6
REMARK VINA RESULT:      -5.0      4.040      6.272
REMARK  Name = ./3D_structures\o50_MMV637413_3D.pdb
REMARK  6 active torsions:
REMARK  status: ('A' for Active; 'I' for Inactive)
REMARK    1  A    between atoms: C2_4  and  N5_20
REMARK    2  A    between atoms: N3_8  and  C6_11
REMARK    3  A    between atoms: C7_13  and  C8_14
REMARK    4  A    between atoms: C8_14  and  O2_15
REMARK    5  A    between atoms: C9_16  and  O4_19
REMARK    6  A    between atoms: C10_17  and  O3_18
REMARK                            x       y       z     vdW  Elec       q    Type
REMARK                         _______ _______ _______ _____ _____    ______ ____
ROOT
ATOM      1  F1  UNL     1     149.499 160.275 168.965  0.00  0.00    +0.000 F 
ATOM      2  C1  UNL     1     149.877 161.367 168.233  0.00  0.00    +0.000 A 
ATOM      3  N1  UNL     1     151.154 161.411 167.835  0.00  0.00    +0.000 NA
ATOM      4  C2  UNL     1     151.591 162.440 167.121  0.00  0.00    +0.000 A 
ATOM      5  C3  UNL     1     150.700 163.453 166.805  0.00  0.00    +0.000 A 
ATOM      6  N2  UNL     1     150.840 164.602 166.111  0.00  0.00    +0.000 NA
ATOM      7  C4  UNL     1     149.640 165.220 166.110  0.00  0.00    +0.000 A 
ATOM      8  N3  UNL     1     148.742 164.491 166.786  0.00  0.00    +0.000 N 
ATOM      9  C5  UNL     1     149.382 163.403 167.219  0.00  0.00    +0.000 A 
ATOM     10  N4  UNL     1     148.992 162.343 167.936  0.00  0.00    +0.000 NA
ENDROOT
BRANCH   8  11
ATOM     11  C6  UNL     1     147.383 164.821 166.997  0.00  0.00    +0.000 C 
ATOM     12  O1  UNL     1     147.033 166.119 166.643  0.00  0.00    +0.000 OA
ATOM     13  C7  UNL     1     145.661 166.165 166.734  0.00  0.00    +0.000 C 
ATOM     14  C9  UNL     1     145.129 164.771 166.515  0.00  0.00    +0.000 C 
ATOM     15  C10 UNL     1     146.419 164.021 166.148  0.00  0.00    +0.000 C 
BRANCH  15  16
ATOM     16  O3  UNL     1     146.368 162.697 166.511  0.00  0.00    +0.000 OA
ATOM     17  H9  UNL     1     147.300 162.345 166.565  0.00  0.00    +0.000 HD
ENDBRANCH  15  16
BRANCH  14  18
ATOM     18  O4  UNL     1     144.742 164.277 167.758  0.00  0.00    +0.000 OA
ATOM     19  H10 UNL     1     144.023 164.828 168.182  0.00  0.00    +0.000 HD
ENDBRANCH  14  18
BRANCH  13  20
ATOM     20  C8  UNL     1     145.050 167.043 165.654  0.00  0.00    +0.000 C 
BRANCH  20  21
ATOM     21  O2  UNL     1     145.561 168.326 165.676  0.00  0.00    +0.000 OA
ATOM     22  H6  UNL     1     146.517 168.352 165.504  0.00  0.00    +0.000 HD
ENDBRANCH  20  21
ENDBRANCH  13  20
ENDBRANCH   8  11
BRANCH   4  23
ATOM     23  N5  UNL     1     152.926 162.569 166.657  0.00  0.00    +0.000 N 
ATOM     24  H11 UNL     1     153.715 162.610 167.364  0.00  0.00    +0.000 HD
ATOM     25  H12 UNL     1     153.173 162.626 165.651  0.00  0.00    +0.000 HD
ENDBRANCH   4  23
TORSDOF 6
ENDMDL
MODEL 7
REMARK VINA RESULT:      -5.0      4.095      6.466
REMARK  Name = ./3D_structures\o50_MMV637413_3D.pdb
REMARK  6 active torsions:
REMARK  status: ('A' for Active; 'I' for Inactive)
REMARK    1  A    between atoms: C2_4  and  N5_20
REMARK    2  A    between atoms: N3_8  and  C6_11
REMARK    3  A    between atoms: C7_13  and  C8_14
REMARK    4  A    between atoms: C8_14  and  O2_15
REMARK    5  A    between atoms: C9_16  and  O4_19
REMARK    6  A    between atoms: C10_17  and  O3_18
REMARK                            x       y       z     vdW  Elec       q    Type
REMARK                         _______ _______ _______ _____ _____    ______ ____
ROOT
ATOM      1  F1  UNL     1     152.391 163.990 163.466  0.00  0.00    +0.000 F 
ATOM      2  C1  UNL     1     152.083 164.668 164.614  0.00  0.00    +0.000 A 
ATOM      3  N1  UNL     1     153.084 165.323 165.213  0.00  0.00    +0.000 NA
ATOM      4  C2  UNL     1     152.859 166.002 166.329  0.00  0.00    +0.000 A 
ATOM      5  C3  UNL     1     151.576 166.012 166.851  0.00  0.00    +0.000 A 
ATOM      6  N2  UNL     1     151.045 166.596 167.946  0.00  0.00    +0.000 NA
ATOM      7  C4  UNL     1     149.734 166.275 167.978  0.00  0.00    +0.000 A 
ATOM      8  N3  UNL     1     149.420 165.502 166.929  0.00  0.00    +0.000 N 
ATOM      9  C5  UNL     1     150.545 165.333 166.229  0.00  0.00    +0.000 A 
ATOM     10  N4  UNL     1     150.825 164.665 165.106  0.00  0.00    +0.000 NA
ENDROOT
BRANCH   8  11
ATOM     11  C6  UNL     1     148.144 164.971 166.631  0.00  0.00    +0.000 C 
ATOM     12  O1  UNL     1     147.584 164.190 167.636  0.00  0.00    +0.000 OA
ATOM     13  C7  UNL     1     146.291 163.949 167.234  0.00  0.00    +0.000 C 
ATOM     14  C9  UNL     1     145.860 165.081 166.336  0.00  0.00    +0.000 C 
ATOM     15  C10 UNL     1     147.069 166.022 166.452  0.00  0.00    +0.000 C 
BRANCH  15  16
ATOM     16  O3  UNL     1     147.249 166.774 165.316  0.00  0.00    +0.000 OA
ATOM     17  H9  UNL     1     146.761 167.636 165.424  0.00  0.00    +0.000 HD
ENDBRANCH  15  16
BRANCH  14  18
ATOM     18  O4  UNL     1     145.875 164.600 165.029  0.00  0.00    +0.000 OA
ATOM     19  H10 UNL     1     145.084 164.907 164.499  0.00  0.00    +0.000 HD
ENDBRANCH  14  18
BRANCH  13  20
ATOM     20  C8  UNL     1     145.326 163.928 168.409  0.00  0.00    +0.000 C 
BRANCH  20  21
ATOM     21  O2  UNL     1     145.577 164.949 169.305  0.00  0.00    +0.000 OA
ATOM     22  H6  UNL     1     146.465 165.329 169.201  0.00  0.00    +0.000 HD
ENDBRANCH  20  21
ENDBRANCH  13  20
ENDBRANCH   8  11
BRANCH   4  23
ATOM     23  N5  UNL     1     153.860 166.725 167.030  0.00  0.00    +0.000 N 
ATOM     24  H11 UNL     1     154.074 166.466 168.035  0.00  0.00    +0.000 HD
ATOM     25  H12 UNL     1     154.399 167.503 166.604  0.00  0.00    +0.000 HD
ENDBRANCH   4  23
TORSDOF 6
ENDMDL
MODEL 8
REMARK VINA RESULT:      -5.0     25.426     26.936
REMARK  Name = ./3D_structures\o50_MMV637413_3D.pdb
REMARK  6 active torsions:
REMARK  status: ('A' for Active; 'I' for Inactive)
REMARK    1  A    between atoms: C2_4  and  N5_20
REMARK    2  A    between atoms: N3_8  and  C6_11
REMARK    3  A    between atoms: C7_13  and  C8_14
REMARK    4  A    between atoms: C8_14  and  O2_15
REMARK    5  A    between atoms: C9_16  and  O4_19
REMARK    6  A    between atoms: C10_17  and  O3_18
REMARK                            x       y       z     vdW  Elec       q    Type
REMARK                         _______ _______ _______ _____ _____    ______ ____
ROOT
ATOM      1  F1  UNL     1     162.955 140.056 169.460  0.00  0.00    +0.000 F 
ATOM      2  C1  UNL     1     162.438 141.087 168.724  0.00  0.00    +0.000 A 
ATOM      3  N1  UNL     1     162.210 140.846 167.428  0.00  0.00    +0.000 NA
ATOM      4  C2  UNL     1     161.709 141.799 166.654  0.00  0.00    +0.000 A 
ATOM      5  C3  UNL     1     161.434 143.034 167.219  0.00  0.00    +0.000 A 
ATOM      6  N2  UNL     1     160.933 144.177 166.704  0.00  0.00    +0.000 NA
ATOM      7  C4  UNL     1     160.873 145.078 167.707  0.00  0.00    +0.000 A 
ATOM      8  N3  UNL     1     161.323 144.534 168.846  0.00  0.00    +0.000 N 
ATOM      9  C5  UNL     1     161.672 143.278 168.559  0.00  0.00    +0.000 A 
ATOM     10  N4  UNL     1     162.177 142.283 169.295  0.00  0.00    +0.000 NA
ENDROOT
BRANCH   8  11
ATOM     11  C6  UNL     1     161.411 145.176 170.104  0.00  0.00    +0.000 C 
ATOM     12  O1  UNL     1     160.918 144.437 171.174  0.00  0.00    +0.000 OA
ATOM     13  C7  UNL     1     161.276 145.141 172.300  0.00  0.00    +0.000 C 
ATOM     14  C9  UNL     1     162.512 145.944 171.977  0.00  0.00    +0.000 C 
ATOM     15  C10 UNL     1     162.829 145.436 170.563  0.00  0.00    +0.000 C 
BRANCH  15  16
ATOM     16  O3  UNL     1     163.464 146.387 169.803  0.00  0.00    +0.000 OA
ATOM     17  H9  UNL     1     162.956 147.242 169.871  0.00  0.00    +0.000 HD
ENDBRANCH  15  16
BRANCH  14  18
ATOM     18  O4  UNL     1     162.115 147.270 171.826  0.00  0.00    +0.000 OA
ATOM     19  H10 UNL     1     161.243 147.357 171.345  0.00  0.00    +0.000 HD
ENDBRANCH  14  18
BRANCH  13  20
ATOM     20  C8  UNL     1     161.639 144.220 173.454  0.00  0.00    +0.000 C 
BRANCH  20  21
ATOM     21  O2  UNL     1     161.012 142.994 173.356  0.00  0.00    +0.000 OA
ATOM     22  H6  UNL     1     161.322 142.474 172.595  0.00  0.00    +0.000 HD
ENDBRANCH  20  21
ENDBRANCH  13  20
ENDBRANCH   8  11
BRANCH   4  23
ATOM     23  N5  UNL     1     161.436 141.631 165.271  0.00  0.00    +0.000 N 
ATOM     24  H11 UNL     1     162.243 141.625 164.584  0.00  0.00    +0.000 HD
ATOM     25  H12 UNL     1     160.477 141.514 164.894  0.00  0.00    +0.000 HD
ENDBRANCH   4  23
TORSDOF 6
ENDMDL
MODEL 9
REMARK VINA RESULT:      -4.9      3.141      5.443
REMARK  Name = ./3D_structures\o50_MMV637413_3D.pdb
REMARK  6 active torsions:
REMARK  status: ('A' for Active; 'I' for Inactive)
REMARK    1  A    between atoms: C2_4  and  N5_20
REMARK    2  A    between atoms: N3_8  and  C6_11
REMARK    3  A    between atoms: C7_13  and  C8_14
REMARK    4  A    between atoms: C8_14  and  O2_15
REMARK    5  A    between atoms: C9_16  and  O4_19
REMARK    6  A    between atoms: C10_17  and  O3_18
REMARK                            x       y       z     vdW  Elec       q    Type
REMARK                         _______ _______ _______ _____ _____    ______ ____
ROOT
ATOM      1  F1  UNL     1     150.023 164.968 165.625  0.00  0.00    +0.000 F 
ATOM      2  C1  UNL     1     149.500 165.043 166.886  0.00  0.00    +0.000 A 
ATOM      3  N1  UNL     1     150.333 165.421 167.862  0.00  0.00    +0.000 NA
ATOM      4  C2  UNL     1     149.894 165.516 169.110  0.00  0.00    +0.000 A 
ATOM      5  C3  UNL     1     148.567 165.214 169.370  0.00  0.00    +0.000 A 
ATOM      6  N2  UNL     1     147.842 165.215 170.508  0.00  0.00    +0.000 NA
ATOM      7  C4  UNL     1     146.587 164.835 170.186  0.00  0.00    +0.000 A 
ATOM      8  N3  UNL     1     146.499 164.594 168.870  0.00  0.00    +0.000 N 
ATOM      9  C5  UNL     1     147.710 164.822 168.358  0.00  0.00    +0.000 A 
ATOM     10  N4  UNL     1     148.203 164.744 167.118  0.00  0.00    +0.000 NA
ENDROOT
BRANCH   8  11
ATOM     11  C6  UNL     1     145.344 164.176 168.171  0.00  0.00    +0.000 C 
ATOM     12  O1  UNL     1     145.241 164.656 166.869  0.00  0.00    +0.000 OA
ATOM     13  C7  UNL     1     144.177 163.982 166.315  0.00  0.00    +0.000 C 
ATOM     14  C9  UNL     1     144.035 162.661 167.027  0.00  0.00    +0.000 C 
ATOM     15  C10 UNL     1     145.276 162.683 167.932  0.00  0.00    +0.000 C 
BRANCH  15  16
ATOM     16  O3  UNL     1     145.083 161.971 169.092  0.00  0.00    +0.000 OA
ATOM     17  H9  UNL     1     145.757 162.268 169.764  0.00  0.00    +0.000 HD
ENDBRANCH  15  16
BRANCH  14  18
ATOM     18  O4  UNL     1     142.939 162.767 167.880  0.00  0.00    +0.000 OA
ATOM     19  H10 UNL     1     142.070 162.617 167.407  0.00  0.00    +0.000 HD
ENDBRANCH  14  18
BRANCH  13  20
ATOM     20  C8  UNL     1     144.409 163.667 164.845  0.00  0.00    +0.000 C 
BRANCH  20  21
ATOM     21  O2  UNL     1     144.942 162.406 164.662  0.00  0.00    +0.000 OA
ATOM     22  H6  UNL     1     145.133 161.955 165.501  0.00  0.00    +0.000 HD
ENDBRANCH  20  21
ENDBRANCH  13  20
ENDBRANCH   8  11
BRANCH   4  23
ATOM     23  N5  UNL     1     150.707 165.909 170.205  0.00  0.00    +0.000 N 
ATOM     24  H11 UNL     1     151.462 166.637 170.051  0.00  0.00    +0.000 HD
ATOM     25  H12 UNL     1     150.601 165.515 171.159  0.00  0.00    +0.000 HD
ENDBRANCH   4  23
TORSDOF 6
ENDMDL
