MODEL 1
REMARK VINA RESULT:      -6.9      0.000      0.000
REMARK  Name = ./3D_structures\o51_MMV658803_3D.pdb
REMARK  7 active torsions:
REMARK  status: ('A' for Active; 'I' for Inactive)
REMARK    1  A    between atoms: C3_4  and  C7_8
REMARK    2  A    between atoms: N1_12  and  C27_34
REMARK    3  A    between atoms: C13_16  and  C14_17
REMARK    4  A    between atoms: C14_17  and  N2_18
REMARK    5  A    between atoms: C14_17  and  C15_19
REMARK    6  A    between atoms: C14_17  and  C21_26
REMARK    7  A    between atoms: N4_30  and  C24_31
REMARK                            x       y       z     vdW  Elec       q    Type
REMARK                         _______ _______ _______ _____ _____    ______ ____
ROOT
ATOM      1  C7  UNL     1     156.923 159.115 165.991  0.00  0.00    +0.000 A 
ATOM      2  C8  UNL     1     157.701 158.835 164.867  0.00  0.00    +0.000 A 
ATOM      3  C9  UNL     1     158.966 158.345 165.046  0.00  0.00    +0.000 A 
ATOM      4  O1  UNL     1     159.694 158.081 164.055  0.00  0.00    +0.000 OA
ATOM      5  N1  UNL     1     159.474 158.128 166.269  0.00  0.00    +0.000 N 
ATOM      6  C10 UNL     1     158.766 158.381 167.396  0.00  0.00    +0.000 A 
ATOM      7  C11 UNL     1     157.481 158.878 167.233  0.00  0.00    +0.000 A 
ATOM      8  C12 UNL     1     156.739 159.127 168.376  0.00  0.00    +0.000 A 
ATOM      9  C13 UNL     1     157.303 158.877 169.601  0.00  0.00    +0.000 A 
ATOM     10  C25 UNL     1     158.585 158.383 169.748  0.00  0.00    +0.000 A 
ATOM     11  C26 UNL     1     159.335 158.129 168.634  0.00  0.00    +0.000 A 
ATOM     12  C27 UNL     1     160.809 157.613 166.426  0.00  0.00    +0.000 C 
ENDROOT
BRANCH   1  16
ATOM     13 CL1  UNL     1     153.830 163.081 164.568  0.00  0.00    +0.000 Cl
ATOM     14  C1  UNL     1     154.102 161.469 165.198  0.00  0.00    +0.000 A 
ATOM     15  C2  UNL     1     155.392 160.944 165.335  0.00  0.00    +0.000 A 
ATOM     16  C3  UNL     1     155.587 159.678 165.831  0.00  0.00    +0.000 A 
ATOM     17  C4  UNL     1     154.472 158.947 166.186  0.00  0.00    +0.000 A 
ATOM     18  C5  UNL     1     153.193 159.468 166.050  0.00  0.00    +0.000 A 
ATOM     19  C6  UNL     1     152.988 160.738 165.553  0.00  0.00    +0.000 A 
ENDBRANCH   1  16
BRANCH   9  20
ATOM     20  C14 UNL     1     156.455 159.174 170.815  0.00  0.00    +0.000 C 
BRANCH  20  21
ATOM     21  C15 UNL     1     155.013 159.169 170.389  0.00  0.00    +0.000 A 
ATOM     22  C16 UNL     1     154.358 157.983 170.164  0.00  0.00    +0.000 A 
ATOM     23  C17 UNL     1     153.013 157.968 169.767  0.00  0.00    +0.000 A 
ATOM     24  C18 UNL     1     152.334 159.162 169.598  0.00  0.00    +0.000 A 
ATOM     25 CL2  UNL     1     150.636 159.157 169.097  0.00  0.00    +0.000 Cl
ATOM     26  C19 UNL     1     152.988 160.348 169.823  0.00  0.00    +0.000 A 
ATOM     27  C20 UNL     1     154.323 160.345 170.217  0.00  0.00    +0.000 A 
ENDBRANCH  20  21
BRANCH  20  28
ATOM     28  C21 UNL     1     156.870 160.479 171.310  0.00  0.00    +0.000 A 
ATOM     29  C22 UNL     1     157.635 161.352 170.522  0.00  0.00    +0.000 A 
ATOM     30  N3  UNL     1     157.835 162.462 171.275  0.00  0.00    +0.000 NA
ATOM     31  C23 UNL     1     157.224 162.264 172.446  0.00  0.00    +0.000 A 
ATOM     32  N4  UNL     1     156.630 161.045 172.469  0.00  0.00    +0.000 N 
ATOM     33  C24 UNL     1     155.890 160.523 173.563  0.00  0.00    +0.000 C 
ENDBRANCH  20  28
BRANCH  20  34
ATOM     34  N2  UNL     1     156.629 158.070 171.712  0.00  0.00    +0.000 NA
ATOM     35  H7  UNL     1     156.172 157.190 171.464  0.00  0.00    +0.000 HD
ATOM     36  H8  UNL     1     156.278 158.370 172.656  0.00  0.00    +0.000 HD
ENDBRANCH  20  34
ENDBRANCH   9  20
TORSDOF 5
ENDMDL
MODEL 2
REMARK VINA RESULT:      -6.7      4.467      8.349
REMARK  Name = ./3D_structures\o51_MMV658803_3D.pdb
REMARK  7 active torsions:
REMARK  status: ('A' for Active; 'I' for Inactive)
REMARK    1  A    between atoms: C3_4  and  C7_8
REMARK    2  A    between atoms: N1_12  and  C27_34
REMARK    3  A    between atoms: C13_16  and  C14_17
REMARK    4  A    between atoms: C14_17  and  N2_18
REMARK    5  A    between atoms: C14_17  and  C15_19
REMARK    6  A    between atoms: C14_17  and  C21_26
REMARK    7  A    between atoms: N4_30  and  C24_31
REMARK                            x       y       z     vdW  Elec       q    Type
REMARK                         _______ _______ _______ _____ _____    ______ ____
ROOT
ATOM      1  C7  UNL     1     159.286 158.421 168.448  0.00  0.00    +0.000 A 
ATOM      2  C8  UNL     1     158.938 158.674 169.776  0.00  0.00    +0.000 A 
ATOM      3  C9  UNL     1     157.690 158.316 170.210  0.00  0.00    +0.000 A 
ATOM      4  O1  UNL     1     157.343 158.529 171.400  0.00  0.00    +0.000 OA
ATOM      5  N1  UNL     1     156.799 157.732 169.395  0.00  0.00    +0.000 N 
ATOM      6  C10 UNL     1     157.081 157.461 168.098  0.00  0.00    +0.000 A 
ATOM      7  C11 UNL     1     158.342 157.817 167.640  0.00  0.00    +0.000 A 
ATOM      8  C12 UNL     1     158.650 157.534 166.320  0.00  0.00    +0.000 A 
ATOM      9  C13 UNL     1     157.705 156.925 165.534  0.00  0.00    +0.000 A 
ATOM     10  C25 UNL     1     156.452 156.577 166.003  0.00  0.00    +0.000 A 
ATOM     11  C26 UNL     1     156.127 156.847 167.302  0.00  0.00    +0.000 A 
ATOM     12  C27 UNL     1     155.493 157.367 169.880  0.00  0.00    +0.000 C 
ENDROOT
BRANCH   1  16
ATOM     13 CL1  UNL     1     164.102 157.177 166.842  0.00  0.00    +0.000 Cl
ATOM     14  C1  UNL     1     162.830 158.328 167.200  0.00  0.00    +0.000 A 
ATOM     15  C2  UNL     1     161.579 157.914 167.671  0.00  0.00    +0.000 A 
ATOM     16  C3  UNL     1     160.593 158.830 167.947  0.00  0.00    +0.000 A 
ATOM     17  C4  UNL     1     160.880 160.164 167.743  0.00  0.00    +0.000 A 
ATOM     18  C5  UNL     1     162.120 160.574 167.276  0.00  0.00    +0.000 A 
ATOM     19  C6  UNL     1     163.116 159.662 166.996  0.00  0.00    +0.000 A 
ENDBRANCH   1  16
BRANCH   9  20
ATOM     20  C14 UNL     1     158.089 156.646 164.101  0.00  0.00    +0.000 C 
BRANCH  20  21
ATOM     21  C15 UNL     1     159.523 156.192 164.082  0.00  0.00    +0.000 A 
ATOM     22  C16 UNL     1     159.829 154.854 164.114  0.00  0.00    +0.000 A 
ATOM     23  C17 UNL     1     161.163 154.421 164.095  0.00  0.00    +0.000 A 
ATOM     24  C18 UNL     1     162.186 155.352 164.045  0.00  0.00    +0.000 A 
ATOM     25 CL2  UNL     1     163.873 154.818 164.021  0.00  0.00    +0.000 Cl
ATOM     26  C19 UNL     1     161.880 156.689 164.013  0.00  0.00    +0.000 A 
ATOM     27  C20 UNL     1     160.551 157.102 164.031  0.00  0.00    +0.000 A 
ENDBRANCH  20  21
BRANCH  20  28
ATOM     28  C21 UNL     1     157.903 157.889 163.365  0.00  0.00    +0.000 A 
ATOM     29  C22 UNL     1     157.513 159.071 164.012  0.00  0.00    +0.000 A 
ATOM     30  N3  UNL     1     157.442 160.022 163.048  0.00  0.00    +0.000 NA
ATOM     31  C23 UNL     1     157.772 159.442 161.891  0.00  0.00    +0.000 A 
ATOM     32  N4  UNL     1     158.057 158.131 162.085  0.00  0.00    +0.000 N 
ATOM     33  C24 UNL     1     158.450 157.225 161.063  0.00  0.00    +0.000 C 
ENDBRANCH  20  28
BRANCH  20  34
ATOM     34  N2  UNL     1     157.293 155.533 163.676  0.00  0.00    +0.000 NA
ATOM     35  H7  UNL     1     156.354 155.736 163.328  0.00  0.00    +0.000 HD
ATOM     36  H8  UNL     1     157.209 154.872 164.489  0.00  0.00    +0.000 HD
ENDBRANCH  20  34
ENDBRANCH   9  20
TORSDOF 5
ENDMDL
MODEL 3
REMARK VINA RESULT:      -6.6      2.304      3.326
REMARK  Name = ./3D_structures\o51_MMV658803_3D.pdb
REMARK  7 active torsions:
REMARK  status: ('A' for Active; 'I' for Inactive)
REMARK    1  A    between atoms: C3_4  and  C7_8
REMARK    2  A    between atoms: N1_12  and  C27_34
REMARK    3  A    between atoms: C13_16  and  C14_17
REMARK    4  A    between atoms: C14_17  and  N2_18
REMARK    5  A    between atoms: C14_17  and  C15_19
REMARK    6  A    between atoms: C14_17  and  C21_26
REMARK    7  A    between atoms: N4_30  and  C24_31
REMARK                            x       y       z     vdW  Elec       q    Type
REMARK                         _______ _______ _______ _____ _____    ______ ____
ROOT
ATOM      1  C7  UNL     1     154.886 159.617 165.831  0.00  0.00    +0.000 A 
ATOM      2  C8  UNL     1     155.868 159.153 164.953  0.00  0.00    +0.000 A 
ATOM      3  C9  UNL     1     156.679 158.125 165.354  0.00  0.00    +0.000 A 
ATOM      4  O1  UNL     1     157.572 157.683 164.589  0.00  0.00    +0.000 OA
ATOM      5  N1  UNL     1     156.553 157.556 166.563  0.00  0.00    +0.000 N 
ATOM      6  C10 UNL     1     155.619 157.964 167.455  0.00  0.00    +0.000 A 
ATOM      7  C11 UNL     1     154.788 159.005 167.066  0.00  0.00    +0.000 A 
ATOM      8  C12 UNL     1     153.819 159.423 167.962  0.00  0.00    +0.000 A 
ATOM      9  C13 UNL     1     153.727 158.798 169.180  0.00  0.00    +0.000 A 
ATOM     10  C25 UNL     1     154.563 157.763 169.555  0.00  0.00    +0.000 A 
ATOM     11  C26 UNL     1     155.526 157.334 168.686  0.00  0.00    +0.000 A 
ATOM     12  C27 UNL     1     157.421 156.477 166.957  0.00  0.00    +0.000 C 
ENDROOT
BRANCH   1  16
ATOM     13 CL1  UNL     1     154.307 164.718 164.846  0.00  0.00    +0.000 Cl
ATOM     14  C1  UNL     1     153.698 163.081 164.983  0.00  0.00    +0.000 A 
ATOM     15  C2  UNL     1     154.532 162.017 165.344  0.00  0.00    +0.000 A 
ATOM     16  C3  UNL     1     154.037 160.739 165.447  0.00  0.00    +0.000 A 
ATOM     17  C4  UNL     1     152.698 160.544 165.182  0.00  0.00    +0.000 A 
ATOM     18  C5  UNL     1     151.871 161.599 164.824  0.00  0.00    +0.000 A 
ATOM     19  C6  UNL     1     152.358 162.886 164.719  0.00  0.00    +0.000 A 
ENDBRANCH   1  16
BRANCH   9  20
ATOM     20  C14 UNL     1     152.659 159.297 170.123  0.00  0.00    +0.000 C 
BRANCH  20  21
ATOM     21  C15 UNL     1     151.846 160.335 169.400  0.00  0.00    +0.000 A 
ATOM     22  C16 UNL     1     150.579 160.044 168.958  0.00  0.00    +0.000 A 
ATOM     23  C17 UNL     1     149.813 161.005 168.284  0.00  0.00    +0.000 A 
ATOM     24  C18 UNL     1     150.338 162.266 168.058  0.00  0.00    +0.000 A 
ATOM     25 CL2  UNL     1     149.382 163.488 167.207  0.00  0.00    +0.000 Cl
ATOM     26  C19 UNL     1     151.605 162.557 168.498  0.00  0.00    +0.000 A 
ATOM     27  C20 UNL     1     152.352 161.592 169.167  0.00  0.00    +0.000 A 
ENDBRANCH  20  21
BRANCH  20  28
ATOM     28  C21 UNL     1     153.345 159.855 171.280  0.00  0.00    +0.000 A 
ATOM     29  C22 UNL     1     154.699 160.220 171.224  0.00  0.00    +0.000 A 
ATOM     30  N3  UNL     1     155.011 160.701 172.452  0.00  0.00    +0.000 NA
ATOM     31  C23 UNL     1     153.907 160.629 173.200  0.00  0.00    +0.000 A 
ATOM     32  N4  UNL     1     152.882 160.109 172.481  0.00  0.00    +0.000 N 
ATOM     33  C24 UNL     1     151.566 159.902 172.975  0.00  0.00    +0.000 C 
ENDBRANCH  20  28
BRANCH  20  34
ATOM     34  N2  UNL     1     151.789 158.188 170.376  0.00  0.00    +0.000 NA
ATOM     35  H7  UNL     1     151.714 157.864 171.342  0.00  0.00    +0.000 HD
ATOM     36  H8  UNL     1     152.116 157.385 169.782  0.00  0.00    +0.000 HD
ENDBRANCH  20  34
ENDBRANCH   9  20
TORSDOF 5
ENDMDL
MODEL 4
REMARK VINA RESULT:      -6.4      6.472      9.776
REMARK  Name = ./3D_structures\o51_MMV658803_3D.pdb
REMARK  7 active torsions:
REMARK  status: ('A' for Active; 'I' for Inactive)
REMARK    1  A    between atoms: C3_4  and  C7_8
REMARK    2  A    between atoms: N1_12  and  C27_34
REMARK    3  A    between atoms: C13_16  and  C14_17
REMARK    4  A    between atoms: C14_17  and  N2_18
REMARK    5  A    between atoms: C14_17  and  C15_19
REMARK    6  A    between atoms: C14_17  and  C21_26
REMARK    7  A    between atoms: N4_30  and  C24_31
REMARK                            x       y       z     vdW  Elec       q    Type
REMARK                         _______ _______ _______ _____ _____    ______ ____
ROOT
ATOM      1  C7  UNL     1     148.698 160.906 167.854  0.00  0.00    +0.000 A 
ATOM      2  C8  UNL     1     147.848 159.800 167.795  0.00  0.00    +0.000 A 
ATOM      3  C9  UNL     1     146.517 160.003 167.550  0.00  0.00    +0.000 A 
ATOM      4  O1  UNL     1     145.724 159.030 167.490  0.00  0.00    +0.000 OA
ATOM      5  N1  UNL     1     146.012 161.232 167.365  0.00  0.00    +0.000 N 
ATOM      6  C10 UNL     1     146.787 162.342 167.409  0.00  0.00    +0.000 A 
ATOM      7  C11 UNL     1     148.140 162.155 167.657  0.00  0.00    +0.000 A 
ATOM      8  C12 UNL     1     148.948 163.279 167.691  0.00  0.00    +0.000 A 
ATOM      9  C13 UNL     1     148.380 164.511 167.484  0.00  0.00    +0.000 A 
ATOM     10  C25 UNL     1     147.031 164.683 167.240  0.00  0.00    +0.000 A 
ATOM     11  C26 UNL     1     146.215 163.587 167.201  0.00  0.00    +0.000 A 
ATOM     12  C27 UNL     1     144.607 161.415 167.109  0.00  0.00    +0.000 C 
ENDROOT
BRANCH   1  16
ATOM     13 CL1  UNL     1     152.468 159.633 171.243  0.00  0.00    +0.000 Cl
ATOM     14  C1  UNL     1     151.902 160.153 169.668  0.00  0.00    +0.000 A 
ATOM     15  C2  UNL     1     150.539 160.314 169.396  0.00  0.00    +0.000 A 
ATOM     16  C3  UNL     1     150.113 160.723 168.156  0.00  0.00    +0.000 A 
ATOM     17  C4  UNL     1     151.071 160.967 167.194  0.00  0.00    +0.000 A 
ATOM     18  C5  UNL     1     152.422 160.807 167.464  0.00  0.00    +0.000 A 
ATOM     19  C6  UNL     1     152.860 160.397 168.707  0.00  0.00    +0.000 A 
ENDBRANCH   1  16
BRANCH   9  20
ATOM     20  C14 UNL     1     149.305 165.704 167.540  0.00  0.00    +0.000 C 
BRANCH  20  21
ATOM     21  C15 UNL     1     150.551 165.366 166.769  0.00  0.00    +0.000 A 
ATOM     22  C16 UNL     1     150.635 165.641 165.427  0.00  0.00    +0.000 A 
ATOM     23  C17 UNL     1     151.793 165.330 164.699  0.00  0.00    +0.000 A 
ATOM     24  C18 UNL     1     152.867 164.737 165.340  0.00  0.00    +0.000 A 
ATOM     25 CL2  UNL     1     154.334 164.339 164.434  0.00  0.00    +0.000 Cl
ATOM     26  C19 UNL     1     152.783 164.461 166.682  0.00  0.00    +0.000 A 
ATOM     27  C20 UNL     1     151.627 164.777 167.389  0.00  0.00    +0.000 A 
ENDBRANCH  20  21
BRANCH  20  28
ATOM     28  C21 UNL     1     149.587 165.952 168.947  0.00  0.00    +0.000 A 
ATOM     29  C22 UNL     1     149.085 165.115 169.954  0.00  0.00    +0.000 A 
ATOM     30  N3  UNL     1     149.538 165.622 171.127  0.00  0.00    +0.000 NA
ATOM     31  C23 UNL     1     150.270 166.701 170.838  0.00  0.00    +0.000 A 
ATOM     32  N4  UNL     1     150.301 166.905 169.498  0.00  0.00    +0.000 N 
ATOM     33  C24 UNL     1     150.996 167.964 168.854  0.00  0.00    +0.000 C 
ENDBRANCH  20  28
BRANCH  20  34
ATOM     34  N2  UNL     1     148.648 166.761 166.829  0.00  0.00    +0.000 NA
ATOM     35  H7  UNL     1     148.249 167.520 167.385  0.00  0.00    +0.000 HD
ATOM     36  H8  UNL     1     147.879 166.330 166.257  0.00  0.00    +0.000 HD
ENDBRANCH  20  34
ENDBRANCH   9  20
TORSDOF 5
ENDMDL
MODEL 5
REMARK VINA RESULT:      -6.4      5.908      9.353
REMARK  Name = ./3D_structures\o51_MMV658803_3D.pdb
REMARK  7 active torsions:
REMARK  status: ('A' for Active; 'I' for Inactive)
REMARK    1  A    between atoms: C3_4  and  C7_8
REMARK    2  A    between atoms: N1_12  and  C27_34
REMARK    3  A    between atoms: C13_16  and  C14_17
REMARK    4  A    between atoms: C14_17  and  N2_18
REMARK    5  A    between atoms: C14_17  and  C15_19
REMARK    6  A    between atoms: C14_17  and  C21_26
REMARK    7  A    between atoms: N4_30  and  C24_31
REMARK                            x       y       z     vdW  Elec       q    Type
REMARK                         _______ _______ _______ _____ _____    ______ ____
ROOT
ATOM      1  C7  UNL     1     148.690 163.021 168.616  0.00  0.00    +0.000 A 
ATOM      2  C8  UNL     1     147.409 163.202 169.141  0.00  0.00    +0.000 A 
ATOM      3  C9  UNL     1     146.627 164.209 168.641  0.00  0.00    +0.000 A 
ATOM      4  O1  UNL     1     145.469 164.400 169.090  0.00  0.00    +0.000 OA
ATOM      5  N1  UNL     1     147.060 165.021 167.665  0.00  0.00    +0.000 N 
ATOM      6  C10 UNL     1     148.292 164.893 167.117  0.00  0.00    +0.000 A 
ATOM      7  C11 UNL     1     149.098 163.878 167.611  0.00  0.00    +0.000 A 
ATOM      8  C12 UNL     1     150.356 163.725 167.051  0.00  0.00    +0.000 A 
ATOM      9  C13 UNL     1     150.743 164.577 166.047  0.00  0.00    +0.000 A 
ATOM     10  C25 UNL     1     149.930 165.585 165.566  0.00  0.00    +0.000 A 
ATOM     11  C26 UNL     1     148.685 165.753 166.103  0.00  0.00    +0.000 A 
ATOM     12  C27 UNL     1     146.216 166.073 167.160  0.00  0.00    +0.000 C 
ENDROOT
BRANCH   1  16
ATOM     13 CL1  UNL     1     152.459 161.560 171.929  0.00  0.00    +0.000 Cl
ATOM     14  C1  UNL     1     151.297 161.243 170.657  0.00  0.00    +0.000 A 
ATOM     15  C2  UNL     1     150.465 162.251 170.156  0.00  0.00    +0.000 A 
ATOM     16  C3  UNL     1     149.559 161.984 169.158  0.00  0.00    +0.000 A 
ATOM     17  C4  UNL     1     149.500 160.695 168.671  0.00  0.00    +0.000 A 
ATOM     18  C5  UNL     1     150.325 159.696 169.167  0.00  0.00    +0.000 A 
ATOM     19  C6  UNL     1     151.238 159.954 170.169  0.00  0.00    +0.000 A 
ENDBRANCH   1  16
BRANCH   9  20
ATOM     20  C14 UNL     1     152.126 164.372 165.476  0.00  0.00    +0.000 C 
BRANCH  20  21
ATOM     21  C15 UNL     1     152.587 162.992 165.854  0.00  0.00    +0.000 A 
ATOM     22  C16 UNL     1     153.127 162.754 167.095  0.00  0.00    +0.000 A 
ATOM     23  C17 UNL     1     153.559 161.470 167.457  0.00  0.00    +0.000 A 
ATOM     24  C18 UNL     1     153.443 160.427 166.555  0.00  0.00    +0.000 A 
ATOM     25 CL2  UNL     1     153.985 158.802 166.999  0.00  0.00    +0.000 Cl
ATOM     26  C19 UNL     1     152.904 160.664 165.315  0.00  0.00    +0.000 A 
ATOM     27  C20 UNL     1     152.479 161.944 164.971  0.00  0.00    +0.000 A 
ENDBRANCH  20  21
BRANCH  20  28
ATOM     28  C21 UNL     1     152.976 165.405 166.052  0.00  0.00    +0.000 A 
ATOM     29  C22 UNL     1     152.549 166.184 167.138  0.00  0.00    +0.000 A 
ATOM     30  N3  UNL     1     153.571 167.029 167.421  0.00  0.00    +0.000 NA
ATOM     31  C23 UNL     1     154.553 166.770 166.554  0.00  0.00    +0.000 A 
ATOM     32  N4  UNL     1     154.189 165.771 165.712  0.00  0.00    +0.000 N 
ATOM     33  C24 UNL     1     155.004 165.246 164.674  0.00  0.00    +0.000 C 
ENDBRANCH  20  28
BRANCH  20  34
ATOM     34  N2  UNL     1     151.984 164.389 164.051  0.00  0.00    +0.000 NA
ATOM     35  H7  UNL     1     152.098 165.290 163.582  0.00  0.00    +0.000 HD
ATOM     36  H8  UNL     1     151.030 164.015 163.821  0.00  0.00    +0.000 HD
ENDBRANCH  20  34
ENDBRANCH   9  20
TORSDOF 5
ENDMDL
MODEL 6
REMARK VINA RESULT:      -6.2      3.480      5.975
REMARK  Name = ./3D_structures\o51_MMV658803_3D.pdb
REMARK  7 active torsions:
REMARK  status: ('A' for Active; 'I' for Inactive)
REMARK    1  A    between atoms: C3_4  and  C7_8
REMARK    2  A    between atoms: N1_12  and  C27_34
REMARK    3  A    between atoms: C13_16  and  C14_17
REMARK    4  A    between atoms: C14_17  and  N2_18
REMARK    5  A    between atoms: C14_17  and  C15_19
REMARK    6  A    between atoms: C14_17  and  C21_26
REMARK    7  A    between atoms: N4_30  and  C24_31
REMARK                            x       y       z     vdW  Elec       q    Type
REMARK                         _______ _______ _______ _____ _____    ______ ____
ROOT
ATOM      1  C7  UNL     1     151.343 161.281 167.352  0.00  0.00    +0.000 A 
ATOM      2  C8  UNL     1     149.967 161.169 167.560  0.00  0.00    +0.000 A 
ATOM      3  C9  UNL     1     149.510 160.254 168.469  0.00  0.00    +0.000 A 
ATOM      4  O1  UNL     1     148.278 160.126 168.682  0.00  0.00    +0.000 OA
ATOM      5  N1  UNL     1     150.348 159.467 169.162  0.00  0.00    +0.000 N 
ATOM      6  C10 UNL     1     151.691 159.532 169.003  0.00  0.00    +0.000 A 
ATOM      7  C11 UNL     1     152.173 160.454 168.085  0.00  0.00    +0.000 A 
ATOM      8  C12 UNL     1     153.545 160.542 167.921  0.00  0.00    +0.000 A 
ATOM      9  C13 UNL     1     154.356 159.721 168.664  0.00  0.00    +0.000 A 
ATOM     10  C25 UNL     1     153.862 158.805 169.574  0.00  0.00    +0.000 A 
ATOM     11  C26 UNL     1     152.511 158.702 169.752  0.00  0.00    +0.000 A 
ATOM     12  C27 UNL     1     149.837 158.512 170.111  0.00  0.00    +0.000 C 
ENDROOT
BRANCH   1  16
ATOM     13 CL1  UNL     1     153.108 166.044 166.118  0.00  0.00    +0.000 Cl
ATOM     14  C1  UNL     1     152.674 164.394 165.719  0.00  0.00    +0.000 A 
ATOM     15  C2  UNL     1     152.192 163.508 166.690  0.00  0.00    +0.000 A 
ATOM     16  C3  UNL     1     151.856 162.218 166.359  0.00  0.00    +0.000 A 
ATOM     17  C4  UNL     1     152.011 161.830 165.044  0.00  0.00    +0.000 A 
ATOM     18  C5  UNL     1     152.489 162.708 164.083  0.00  0.00    +0.000 A 
ATOM     19  C6  UNL     1     152.828 164.006 164.405  0.00  0.00    +0.000 A 
ENDBRANCH   1  16
BRANCH   9  20
ATOM     20  C14 UNL     1     155.844 159.852 168.442  0.00  0.00    +0.000 C 
BRANCH  20  21
ATOM     21  C15 UNL     1     156.238 158.901 167.346  0.00  0.00    +0.000 A 
ATOM     22  C16 UNL     1     157.384 159.113 166.620  0.00  0.00    +0.000 A 
ATOM     23  C17 UNL     1     157.761 158.232 165.596  0.00  0.00    +0.000 A 
ATOM     24  C18 UNL     1     156.969 157.133 165.311  0.00  0.00    +0.000 A 
ATOM     25 CL2  UNL     1     157.434 156.013 164.022  0.00  0.00    +0.000 Cl
ATOM     26  C19 UNL     1     155.824 156.921 166.036  0.00  0.00    +0.000 A 
ATOM     27  C20 UNL     1     155.464 157.805 167.049  0.00  0.00    +0.000 A 
ENDBRANCH  20  21
BRANCH  20  28
ATOM     28  C21 UNL     1     156.489 159.521 169.706  0.00  0.00    +0.000 A 
ATOM     29  C22 UNL     1     157.183 158.315 169.880  0.00  0.00    +0.000 A 
ATOM     30  N3  UNL     1     157.657 158.333 171.150  0.00  0.00    +0.000 NA
ATOM     31  C23 UNL     1     157.269 159.485 171.704  0.00  0.00    +0.000 A 
ATOM     32  N4  UNL     1     156.551 160.217 170.816  0.00  0.00    +0.000 N 
ATOM     33  C24 UNL     1     155.993 161.496 171.081  0.00  0.00    +0.000 C 
ENDBRANCH  20  28
BRANCH  20  34
ATOM     34  N2  UNL     1     156.065 161.177 167.945  0.00  0.00    +0.000 NA
ATOM     35  H7  UNL     1     156.545 161.265 167.047  0.00  0.00    +0.000 HD
ATOM     36  H8  UNL     1     156.620 161.700 168.668  0.00  0.00    +0.000 HD
ENDBRANCH  20  34
ENDBRANCH   9  20
TORSDOF 5
ENDMDL
MODEL 7
REMARK VINA RESULT:      -6.2      3.543      5.784
REMARK  Name = ./3D_structures\o51_MMV658803_3D.pdb
REMARK  7 active torsions:
REMARK  status: ('A' for Active; 'I' for Inactive)
REMARK    1  A    between atoms: C3_4  and  C7_8
REMARK    2  A    between atoms: N1_12  and  C27_34
REMARK    3  A    between atoms: C13_16  and  C14_17
REMARK    4  A    between atoms: C14_17  and  N2_18
REMARK    5  A    between atoms: C14_17  and  C15_19
REMARK    6  A    between atoms: C14_17  and  C21_26
REMARK    7  A    between atoms: N4_30  and  C24_31
REMARK                            x       y       z     vdW  Elec       q    Type
REMARK                         _______ _______ _______ _____ _____    ______ ____
ROOT
ATOM      1  C7  UNL     1     153.635 161.462 165.903  0.00  0.00    +0.000 A 
ATOM      2  C8  UNL     1     153.154 161.988 164.702  0.00  0.00    +0.000 A 
ATOM      3  C9  UNL     1     152.320 163.072 164.745  0.00  0.00    +0.000 A 
ATOM      4  O1  UNL     1     151.868 163.572 163.683  0.00  0.00    +0.000 OA
ATOM      5  N1  UNL     1     151.955 163.638 165.906  0.00  0.00    +0.000 N 
ATOM      6  C10 UNL     1     152.391 163.172 167.100  0.00  0.00    +0.000 A 
ATOM      7  C11 UNL     1     153.238 162.073 167.077  0.00  0.00    +0.000 A 
ATOM      8  C12 UNL     1     153.703 161.593 168.290  0.00  0.00    +0.000 A 
ATOM      9  C13 UNL     1     153.307 162.218 169.446  0.00  0.00    +0.000 A 
ATOM     10  C25 UNL     1     152.461 163.310 169.455  0.00  0.00    +0.000 A 
ATOM     11  C26 UNL     1     151.991 163.801 168.269  0.00  0.00    +0.000 A 
ATOM     12  C27 UNL     1     151.075 164.777 165.919  0.00  0.00    +0.000 C 
ENDROOT
BRANCH   1  16
ATOM     13 CL1  UNL     1     158.346 159.303 165.215  0.00  0.00    +0.000 Cl
ATOM     14  C1  UNL     1     156.635 159.220 165.583  0.00  0.00    +0.000 A 
ATOM     15  C2  UNL     1     155.832 160.366 165.599  0.00  0.00    +0.000 A 
ATOM     16  C3  UNL     1     154.492 160.282 165.889  0.00  0.00    +0.000 A 
ATOM     17  C4  UNL     1     153.970 159.035 166.163  0.00  0.00    +0.000 A 
ATOM     18  C5  UNL     1     154.766 157.899 166.147  0.00  0.00    +0.000 A 
ATOM     19  C6  UNL     1     156.113 157.973 165.857  0.00  0.00    +0.000 A 
ENDBRANCH   1  16
BRANCH   9  20
ATOM     20  C14 UNL     1     153.837 161.650 170.741  0.00  0.00    +0.000 C 
BRANCH  20  21
ATOM     21  C15 UNL     1     155.062 160.837 170.428  0.00  0.00    +0.000 A 
ATOM     22  C16 UNL     1     154.942 159.560 169.937  0.00  0.00    +0.000 A 
ATOM     23  C17 UNL     1     156.078 158.793 169.641  0.00  0.00    +0.000 A 
ATOM     24  C18 UNL     1     157.339 159.327 169.846  0.00  0.00    +0.000 A 
ATOM     25 CL2  UNL     1     158.781 158.370 169.478  0.00  0.00    +0.000 Cl
ATOM     26  C19 UNL     1     157.459 160.603 170.338  0.00  0.00    +0.000 A 
ATOM     27  C20 UNL     1     156.321 161.351 170.625  0.00  0.00    +0.000 A 
ENDBRANCH  20  21
BRANCH  20  28
ATOM     28  C21 UNL     1     152.773 160.833 171.309  0.00  0.00    +0.000 A 
ATOM     29  C22 UNL     1     151.641 160.480 170.559  0.00  0.00    +0.000 A 
ATOM     30  N3  UNL     1     150.868 159.723 171.377  0.00  0.00    +0.000 NA
ATOM     31  C23 UNL     1     151.502 159.629 172.549  0.00  0.00    +0.000 A 
ATOM     32  N4  UNL     1     152.673 160.311 172.508  0.00  0.00    +0.000 N 
ATOM     33  C24 UNL     1     153.594 160.410 173.586  0.00  0.00    +0.000 C 
ENDBRANCH  20  28
BRANCH  20  34
ATOM     34  N2  UNL     1     154.267 162.767 171.528  0.00  0.00    +0.000 NA
ATOM     35  H7  UNL     1     155.214 162.732 171.910  0.00  0.00    +0.000 HD
ATOM     36  H8  UNL     1     153.593 162.873 172.327  0.00  0.00    +0.000 HD
ENDBRANCH  20  34
ENDBRANCH   9  20
TORSDOF 5
ENDMDL
MODEL 8
REMARK VINA RESULT:      -6.1      3.724      6.677
REMARK  Name = ./3D_structures\o51_MMV658803_3D.pdb
REMARK  7 active torsions:
REMARK  status: ('A' for Active; 'I' for Inactive)
REMARK    1  A    between atoms: C3_4  and  C7_8
REMARK    2  A    between atoms: N1_12  and  C27_34
REMARK    3  A    between atoms: C13_16  and  C14_17
REMARK    4  A    between atoms: C14_17  and  N2_18
REMARK    5  A    between atoms: C14_17  and  C15_19
REMARK    6  A    between atoms: C14_17  and  C21_26
REMARK    7  A    between atoms: N4_30  and  C24_31
REMARK                            x       y       z     vdW  Elec       q    Type
REMARK                         _______ _______ _______ _____ _____    ______ ____
ROOT
ATOM      1  C7  UNL     1     156.392 161.261 171.284  0.00  0.00    +0.000 A 
ATOM      2  C8  UNL     1     157.117 161.973 172.241  0.00  0.00    +0.000 A 
ATOM      3  C9  UNL     1     156.453 162.853 173.052  0.00  0.00    +0.000 A 
ATOM      4  O1  UNL     1     157.074 163.510 173.925  0.00  0.00    +0.000 OA
ATOM      5  N1  UNL     1     155.129 163.047 172.949  0.00  0.00    +0.000 N 
ATOM      6  C10 UNL     1     154.374 162.385 172.040  0.00  0.00    +0.000 A 
ATOM      7  C11 UNL     1     155.031 161.488 171.210  0.00  0.00    +0.000 A 
ATOM      8  C12 UNL     1     154.270 160.793 170.285  0.00  0.00    +0.000 A 
ATOM      9  C13 UNL     1     152.918 161.022 170.231  0.00  0.00    +0.000 A 
ATOM     10  C25 UNL     1     152.277 161.920 171.063  0.00  0.00    +0.000 A 
ATOM     11  C26 UNL     1     153.008 162.616 171.984  0.00  0.00    +0.000 A 
ATOM     12  C27 UNL     1     154.457 163.981 173.815  0.00  0.00    +0.000 C 
ENDROOT
BRANCH   1  16
ATOM     13 CL1  UNL     1     158.048 160.060 166.474  0.00  0.00    +0.000 Cl
ATOM     14  C1  UNL     1     157.869 159.730 168.185  0.00  0.00    +0.000 A 
ATOM     15  C2  UNL     1     157.212 160.624 169.039  0.00  0.00    +0.000 A 
ATOM     16  C3  UNL     1     157.080 160.348 170.379  0.00  0.00    +0.000 A 
ATOM     17  C4  UNL     1     157.616 159.168 170.848  0.00  0.00    +0.000 A 
ATOM     18  C5  UNL     1     158.267 158.282 170.002  0.00  0.00    +0.000 A 
ATOM     19  C6  UNL     1     158.404 158.549 168.656  0.00  0.00    +0.000 A 
ENDBRANCH   1  16
BRANCH   9  20
ATOM     20  C14 UNL     1     152.137 160.244 169.199  0.00  0.00    +0.000 C 
BRANCH  20  21
ATOM     21  C15 UNL     1     153.106 159.404 168.415  0.00  0.00    +0.000 A 
ATOM     22  C16 UNL     1     153.645 158.266 168.965  0.00  0.00    +0.000 A 
ATOM     23  C17 UNL     1     154.549 157.476 168.242  0.00  0.00    +0.000 A 
ATOM     24  C18 UNL     1     154.906 157.844 166.956  0.00  0.00    +0.000 A 
ATOM     25 CL2  UNL     1     156.047 156.854 166.033  0.00  0.00    +0.000 Cl
ATOM     26  C19 UNL     1     154.369 158.980 166.406  0.00  0.00    +0.000 A 
ATOM     27  C20 UNL     1     153.472 159.754 167.137  0.00  0.00    +0.000 A 
ENDBRANCH  20  21
BRANCH  20  28
ATOM     28  C21 UNL     1     151.461 161.221 168.357  0.00  0.00    +0.000 A 
ATOM     29  C22 UNL     1     152.144 162.323 167.821  0.00  0.00    +0.000 A 
ATOM     30  N3  UNL     1     151.232 163.014 167.093  0.00  0.00    +0.000 NA
ATOM     31  C23 UNL     1     150.071 162.362 167.188  0.00  0.00    +0.000 A 
ATOM     32  N4  UNL     1     150.210 161.259 167.965  0.00  0.00    +0.000 N 
ATOM     33  C24 UNL     1     149.169 160.341 168.266  0.00  0.00    +0.000 C 
ENDBRANCH  20  28
BRANCH  20  34
ATOM     34  N2  UNL     1     151.293 159.341 169.924  0.00  0.00    +0.000 NA
ATOM     35  H7  UNL     1     150.304 159.320 169.669  0.00  0.00    +0.000 HD
ATOM     36  H8  UNL     1     151.366 159.586 170.944  0.00  0.00    +0.000 HD
ENDBRANCH  20  34
ENDBRANCH   9  20
TORSDOF 5
ENDMDL
MODEL 9
REMARK VINA RESULT:      -6.1      3.611      6.709
REMARK  Name = ./3D_structures\o51_MMV658803_3D.pdb
REMARK  7 active torsions:
REMARK  status: ('A' for Active; 'I' for Inactive)
REMARK    1  A    between atoms: C3_4  and  C7_8
REMARK    2  A    between atoms: N1_12  and  C27_34
REMARK    3  A    between atoms: C13_16  and  C14_17
REMARK    4  A    between atoms: C14_17  and  N2_18
REMARK    5  A    between atoms: C14_17  and  C15_19
REMARK    6  A    between atoms: C14_17  and  C21_26
REMARK    7  A    between atoms: N4_30  and  C24_31
REMARK                            x       y       z     vdW  Elec       q    Type
REMARK                         _______ _______ _______ _____ _____    ______ ____
ROOT
ATOM      1  C7  UNL     1     156.461 159.691 170.500  0.00  0.00    +0.000 A 
ATOM      2  C8  UNL     1     156.585 159.555 171.884  0.00  0.00    +0.000 A 
ATOM      3  C9  UNL     1     155.506 159.844 172.675  0.00  0.00    +0.000 A 
ATOM      4  O1  UNL     1     155.584 159.732 173.925  0.00  0.00    +0.000 OA
ATOM      5  N1  UNL     1     154.339 160.254 172.156  0.00  0.00    +0.000 N 
ATOM      6  C10 UNL     1     154.159 160.404 170.822  0.00  0.00    +0.000 A 
ATOM      7  C11 UNL     1     155.242 160.114 170.004  0.00  0.00    +0.000 A 
ATOM      8  C12 UNL     1     155.069 160.249 168.637  0.00  0.00    +0.000 A 
ATOM      9  C13 UNL     1     153.850 160.661 168.159  0.00  0.00    +0.000 A 
ATOM     10  C25 UNL     1     152.781 160.947 168.986  0.00  0.00    +0.000 A 
ATOM     11  C26 UNL     1     152.929 160.820 170.338  0.00  0.00    +0.000 A 
ATOM     12  C27 UNL     1     153.222 160.552 173.014  0.00  0.00    +0.000 C 
ENDROOT
BRANCH   1  16
ATOM     13 CL1  UNL     1     160.968 161.266 168.373  0.00  0.00    +0.000 Cl
ATOM     14  C1  UNL     1     159.688 160.094 168.616  0.00  0.00    +0.000 A 
ATOM     15  C2  UNL     1     158.602 160.361 169.457  0.00  0.00    +0.000 A 
ATOM     16  C3  UNL     1     157.606 159.430 169.636  0.00  0.00    +0.000 A 
ATOM     17  C4  UNL     1     157.717 158.232 168.962  0.00  0.00    +0.000 A 
ATOM     18  C5  UNL     1     158.794 157.968 168.129  0.00  0.00    +0.000 A 
ATOM     19  C6  UNL     1     159.798 158.896 167.942  0.00  0.00    +0.000 A 
ENDBRANCH   1  16
BRANCH   9  20
ATOM     20  C14 UNL     1     153.718 160.799 166.661  0.00  0.00    +0.000 C 
BRANCH  20  21
ATOM     21  C15 UNL     1     154.784 159.956 166.018  0.00  0.00    +0.000 A 
ATOM     22  C16 UNL     1     154.844 158.605 166.261  0.00  0.00    +0.000 A 
ATOM     23  C17 UNL     1     155.834 157.810 165.666  0.00  0.00    +0.000 A 
ATOM     24  C18 UNL     1     156.764 158.391 164.822  0.00  0.00    +0.000 A 
ATOM     25 CL2  UNL     1     158.019 157.399 164.064  0.00  0.00    +0.000 Cl
ATOM     26  C19 UNL     1     156.705 159.741 164.579  0.00  0.00    +0.000 A 
ATOM     27  C20 UNL     1     155.716 160.515 165.178  0.00  0.00    +0.000 A 
ENDBRANCH  20  21
BRANCH  20  28
ATOM     28  C21 UNL     1     153.884 162.212 166.353  0.00  0.00    +0.000 A 
ATOM     29  C22 UNL     1     154.675 163.049 167.154  0.00  0.00    +0.000 A 
ATOM     30  N3  UNL     1     154.617 164.279 166.586  0.00  0.00    +0.000 NA
ATOM     31  C23 UNL     1     153.837 164.183 165.506  0.00  0.00    +0.000 A 
ATOM     32  N4  UNL     1     153.385 162.913 165.362  0.00  0.00    +0.000 N 
ATOM     33  C24 UNL     1     152.537 162.467 164.313  0.00  0.00    +0.000 C 
ENDBRANCH  20  28
BRANCH  20  34
ATOM     34  N2  UNL     1     152.457 160.217 166.310  0.00  0.00    +0.000 NA
ATOM     35  H7  UNL     1     151.652 160.845 166.253  0.00  0.00    +0.000 HD
ATOM     36  H8  UNL     1     152.242 159.469 167.016  0.00  0.00    +0.000 HD
ENDBRANCH  20  34
ENDBRANCH   9  20
TORSDOF 5
ENDMDL
