MODEL 1
REMARK VINA RESULT:      -8.1      0.000      0.000
REMARK  Name = ./3D_structures\o56_MMV1782222_3D.pdb
REMARK  6 active torsions:
REMARK  status: ('A' for Active; 'I' for Inactive)
REMARK    1  A    between atoms: C1_1  and  N1_2
REMARK    2  A    between atoms: N2_10  and  C24_32
REMARK    3  A    between atoms: N3_15  and  C11_16
REMARK    4  A    between atoms: C11_16  and  C12_17
REMARK    5  A    between atoms: C15_20  and  C16_21
REMARK    6  A    between atoms: C16_21  and  N4_22
REMARK                            x       y       z     vdW  Elec       q    Type
REMARK                         _______ _______ _______ _____ _____    ______ ____
ROOT
ATOM      1  C1  UNL     1     159.902 158.378 167.663  0.00  0.00    +0.000 C 
ATOM      2  N1  UNL     1     158.546 157.930 167.660  0.00  0.00    +0.000 N 
ATOM      3  C2  UNL     1     157.778 158.250 168.839  0.00  0.00    +0.000 A 
ATOM      4  C3  UNL     1     158.576 158.433 169.942  0.00  0.00    +0.000 A 
ATOM      5  C4  UNL     1     158.049 158.745 171.193  0.00  0.00    +0.000 A 
ATOM      6  C5  UNL     1     156.679 158.871 171.316  0.00  0.00    +0.000 A 
ATOM      7 CL1  UNL     1     155.969 159.265 172.885  0.00  0.00    +0.000 Cl
ATOM      8  C6  UNL     1     155.884 158.686 170.209  0.00  0.00    +0.000 A 
ATOM      9  C7  UNL     1     156.410 158.376 168.965  0.00  0.00    +0.000 A 
ATOM     10  N2  UNL     1     155.428 158.229 167.950  0.00  0.00    +0.000 N 
ATOM     11  C8  UNL     1     155.584 157.572 166.671  0.00  0.00    +0.000 C 
ATOM     12  O1  UNL     1     154.550 157.433 166.004  0.00  0.00    +0.000 OA
ATOM     13  C9  UNL     1     156.795 157.049 166.054  0.00  0.00    +0.000 A 
ATOM     14  C10 UNL     1     156.914 156.289 164.922  0.00  0.00    +0.000 A 
ATOM     15  N3  UNL     1     158.202 155.994 164.675  0.00  0.00    +0.000 N 
ATOM     16  N5  UNL     1     158.905 156.574 165.660  0.00  0.00    +0.000 NA
ATOM     17  C23 UNL     1     158.093 157.219 166.511  0.00  0.00    +0.000 A 
ENDROOT
BRANCH  10  18
ATOM     18  C24 UNL     1     154.174 158.804 168.266  0.00  0.00    +0.000 A 
ATOM     19  C25 UNL     1     153.820 160.042 167.774  0.00  0.00    +0.000 A 
ATOM     20  C26 UNL     1     152.604 160.587 168.090  0.00  0.00    +0.000 A 
ATOM     21  C27 UNL     1     151.725 159.881 168.913  0.00  0.00    +0.000 A 
ATOM     22  C28 UNL     1     152.085 158.653 169.398  0.00  0.00    +0.000 A 
ATOM     23  C29 UNL     1     153.308 158.104 169.080  0.00  0.00    +0.000 A 
ENDBRANCH  10  18
BRANCH  15  24
ATOM     24  C11 UNL     1     158.737 155.209 163.573  0.00  0.00    +0.000 C 
BRANCH  24  25
ATOM     25  C12 UNL     1     158.288 153.808 163.713  0.00  0.00    +0.000 A 
ATOM     26  C13 UNL     1     157.303 153.226 162.948  0.00  0.00    +0.000 A 
ATOM     27  C14 UNL     1     156.929 151.907 163.128  0.00  0.00    +0.000 A 
ATOM     28  C15 UNL     1     157.574 151.181 164.105  0.00  0.00    +0.000 A 
ATOM     29  C21 UNL     1     158.564 151.747 164.884  0.00  0.00    +0.000 A 
ATOM     30  C22 UNL     1     158.924 153.048 164.694  0.00  0.00    +0.000 A 
BRANCH  28  31
ATOM     31  C16 UNL     1     157.181 149.762 164.305  0.00  0.00    +0.000 C 
BRANCH  31  32
ATOM     32  N4  UNL     1     157.556 148.928 163.179  0.00  0.00    +0.000 NA
ATOM     33  C17 UNL     1     158.569 147.965 163.504  0.00  0.00    +0.000 C 
ATOM     34  C18 UNL     1     158.572 146.839 162.479  0.00  0.00    +0.000 C 
ATOM     35  O2  UNL     1     157.455 146.050 162.653  0.00  0.00    +0.000 OA
ATOM     36  C19 UNL     1     156.423 146.757 163.238  0.00  0.00    +0.000 C 
ATOM     37  C20 UNL     1     156.376 148.194 162.766  0.00  0.00    +0.000 C 
ENDBRANCH  31  32
ENDBRANCH  28  31
ENDBRANCH  24  25
ENDBRANCH  15  24
TORSDOF 5
ENDMDL
MODEL 2
REMARK VINA RESULT:      -7.5      1.471      2.128
REMARK  Name = ./3D_structures\o56_MMV1782222_3D.pdb
REMARK  6 active torsions:
REMARK  status: ('A' for Active; 'I' for Inactive)
REMARK    1  A    between atoms: C1_1  and  N1_2
REMARK    2  A    between atoms: N2_10  and  C24_32
REMARK    3  A    between atoms: N3_15  and  C11_16
REMARK    4  A    between atoms: C11_16  and  C12_17
REMARK    5  A    between atoms: C15_20  and  C16_21
REMARK    6  A    between atoms: C16_21  and  N4_22
REMARK                            x       y       z     vdW  Elec       q    Type
REMARK                         _______ _______ _______ _____ _____    ______ ____
ROOT
ATOM      1  C1  UNL     1     159.088 160.455 168.860  0.00  0.00    +0.000 C 
ATOM      2  N1  UNL     1     158.018 159.509 168.854  0.00  0.00    +0.000 N 
ATOM      3  C2  UNL     1     157.085 159.612 169.950  0.00  0.00    +0.000 A 
ATOM      4  C3  UNL     1     157.649 160.202 171.055  0.00  0.00    +0.000 A 
ATOM      5  C4  UNL     1     156.934 160.399 172.234  0.00  0.00    +0.000 A 
ATOM      6  C5  UNL     1     155.617 159.985 172.282  0.00  0.00    +0.000 A 
ATOM      7 CL1  UNL     1     154.675 160.215 173.758  0.00  0.00    +0.000 Cl
ATOM      8  C6  UNL     1     155.057 159.394 171.172  0.00  0.00    +0.000 A 
ATOM      9  C7  UNL     1     155.770 159.198 170.001  0.00  0.00    +0.000 A 
ATOM     10  N2  UNL     1     155.016 158.578 168.970  0.00  0.00    +0.000 N 
ATOM     11  C8  UNL     1     155.526 157.916 167.790  0.00  0.00    +0.000 C 
ATOM     12  O1  UNL     1     154.690 157.316 167.102  0.00  0.00    +0.000 OA
ATOM     13  C9  UNL     1     156.895 157.857 167.296  0.00  0.00    +0.000 A 
ATOM     14  C10 UNL     1     157.398 157.100 166.272  0.00  0.00    +0.000 A 
ATOM     15  N3  UNL     1     158.717 157.316 166.119  0.00  0.00    +0.000 N 
ATOM     16  N5  UNL     1     159.050 158.219 167.055  0.00  0.00    +0.000 NA
ATOM     17  C23 UNL     1     157.979 158.569 167.783  0.00  0.00    +0.000 A 
ENDROOT
BRANCH  10  18
ATOM     18  C24 UNL     1     153.614 158.638 169.158  0.00  0.00    +0.000 A 
ATOM     19  C25 UNL     1     152.891 159.734 168.740  0.00  0.00    +0.000 A 
ATOM     20  C26 UNL     1     151.535 159.779 168.931  0.00  0.00    +0.000 A 
ATOM     21  C27 UNL     1     150.891 158.708 169.550  0.00  0.00    +0.000 A 
ATOM     22  C28 UNL     1     151.616 157.624 169.964  0.00  0.00    +0.000 A 
ATOM     23  C29 UNL     1     152.979 157.578 169.772  0.00  0.00    +0.000 A 
ENDBRANCH  10  18
BRANCH  15  24
ATOM     24  C11 UNL     1     159.609 156.704 165.146  0.00  0.00    +0.000 C 
BRANCH  24  25
ATOM     25  C12 UNL     1     158.873 155.659 164.405  0.00  0.00    +0.000 A 
ATOM     26  C13 UNL     1     158.133 155.887 163.267  0.00  0.00    +0.000 A 
ATOM     27  C14 UNL     1     157.467 154.864 162.617  0.00  0.00    +0.000 A 
ATOM     28  C15 UNL     1     157.563 153.595 163.145  0.00  0.00    +0.000 A 
ATOM     29  C21 UNL     1     158.300 153.346 164.286  0.00  0.00    +0.000 A 
ATOM     30  C22 UNL     1     158.952 154.364 164.915  0.00  0.00    +0.000 A 
BRANCH  28  31
ATOM     31  C16 UNL     1     156.854 152.488 162.452  0.00  0.00    +0.000 C 
BRANCH  31  32
ATOM     32  N4  UNL     1     157.326 151.185 162.879  0.00  0.00    +0.000 NA
ATOM     33  C17 UNL     1     156.301 150.384 163.484  0.00  0.00    +0.000 C 
ATOM     34  C18 UNL     1     156.699 148.914 163.464  0.00  0.00    +0.000 C 
ATOM     35  O2  UNL     1     156.623 148.432 162.175  0.00  0.00    +0.000 OA
ATOM     36  C19 UNL     1     156.784 149.441 161.247  0.00  0.00    +0.000 C 
ATOM     37  C20 UNL     1     157.788 150.478 161.700  0.00  0.00    +0.000 C 
ENDBRANCH  31  32
ENDBRANCH  28  31
ENDBRANCH  24  25
ENDBRANCH  15  24
TORSDOF 5
ENDMDL
MODEL 3
REMARK VINA RESULT:      -7.5      4.623     11.168
REMARK  Name = ./3D_structures\o56_MMV1782222_3D.pdb
REMARK  6 active torsions:
REMARK  status: ('A' for Active; 'I' for Inactive)
REMARK    1  A    between atoms: C1_1  and  N1_2
REMARK    2  A    between atoms: N2_10  and  C24_32
REMARK    3  A    between atoms: N3_15  and  C11_16
REMARK    4  A    between atoms: C11_16  and  C12_17
REMARK    5  A    between atoms: C15_20  and  C16_21
REMARK    6  A    between atoms: C16_21  and  N4_22
REMARK                            x       y       z     vdW  Elec       q    Type
REMARK                         _______ _______ _______ _____ _____    ______ ____
ROOT
ATOM      1  C1  UNL     1     156.968 159.661 171.411  0.00  0.00    +0.000 C 
ATOM      2  N1  UNL     1     156.591 159.452 170.050  0.00  0.00    +0.000 N 
ATOM      3  C2  UNL     1     157.643 159.619 169.075  0.00  0.00    +0.000 A 
ATOM      4  C3  UNL     1     158.641 160.447 169.530  0.00  0.00    +0.000 A 
ATOM      5  C4  UNL     1     159.756 160.756 168.755  0.00  0.00    +0.000 A 
ATOM      6  C5  UNL     1     159.850 160.207 167.491  0.00  0.00    +0.000 A 
ATOM      7 CL1  UNL     1     161.247 160.574 166.474  0.00  0.00    +0.000 Cl
ATOM      8  C6  UNL     1     158.848 159.379 167.040  0.00  0.00    +0.000 A 
ATOM      9  C7  UNL     1     157.739 159.073 167.813  0.00  0.00    +0.000 A 
ATOM     10  N2  UNL     1     156.820 158.200 167.173  0.00  0.00    +0.000 N 
ATOM     11  C8  UNL     1     155.437 157.975 167.526  0.00  0.00    +0.000 C 
ATOM     12  O1  UNL     1     154.782 157.281 166.738  0.00  0.00    +0.000 OA
ATOM     13  C9  UNL     1     154.701 158.455 168.689  0.00  0.00    +0.000 A 
ATOM     14  C10 UNL     1     153.358 158.375 168.938  0.00  0.00    +0.000 A 
ATOM     15  N3  UNL     1     153.054 158.939 170.120  0.00  0.00    +0.000 N 
ATOM     16  N5  UNL     1     154.218 159.379 170.624  0.00  0.00    +0.000 NA
ATOM     17  C23 UNL     1     155.233 159.106 169.791  0.00  0.00    +0.000 A 
ENDROOT
BRANCH  10  18
ATOM     18  C24 UNL     1     157.361 157.490 166.074  0.00  0.00    +0.000 A 
ATOM     19  C25 UNL     1     157.371 158.043 164.812  0.00  0.00    +0.000 A 
ATOM     20  C26 UNL     1     157.897 157.344 163.757  0.00  0.00    +0.000 A 
ATOM     21  C27 UNL     1     158.421 156.069 163.969  0.00  0.00    +0.000 A 
ATOM     22  C28 UNL     1     158.406 155.526 165.225  0.00  0.00    +0.000 A 
ATOM     23  C29 UNL     1     157.879 156.229 166.286  0.00  0.00    +0.000 A 
ENDBRANCH  10  18
BRANCH  15  24
ATOM     24  C11 UNL     1     151.742 159.056 170.737  0.00  0.00    +0.000 C 
BRANCH  24  25
ATOM     25  C12 UNL     1     150.982 160.127 170.059  0.00  0.00    +0.000 A 
ATOM     26  C13 UNL     1     150.063 159.914 169.056  0.00  0.00    +0.000 A 
ATOM     27  C14 UNL     1     149.382 160.961 168.462  0.00  0.00    +0.000 A 
ATOM     28  C15 UNL     1     149.651 162.238 168.903  0.00  0.00    +0.000 A 
ATOM     29  C21 UNL     1     150.570 162.472 169.907  0.00  0.00    +0.000 A 
ATOM     30  C22 UNL     1     151.232 161.431 170.485  0.00  0.00    +0.000 A 
BRANCH  28  31
ATOM     31  C16 UNL     1     148.923 163.370 168.273  0.00  0.00    +0.000 C 
BRANCH  31  32
ATOM     32  N4  UNL     1     147.519 163.070 168.067  0.00  0.00    +0.000 NA
ATOM     33  C17 UNL     1     146.715 163.317 169.230  0.00  0.00    +0.000 C 
ATOM     34  C18 UNL     1     145.250 163.457 168.837  0.00  0.00    +0.000 C 
ATOM     35  O2  UNL     1     145.060 164.654 168.179  0.00  0.00    +0.000 OA
ATOM     36  C19 UNL     1     146.221 165.086 167.569  0.00  0.00    +0.000 C 
ATOM     37  C20 UNL     1     147.035 163.938 167.012  0.00  0.00    +0.000 C 
ENDBRANCH  31  32
ENDBRANCH  28  31
ENDBRANCH  24  25
ENDBRANCH  15  24
TORSDOF 5
ENDMDL
MODEL 4
REMARK VINA RESULT:      -7.4      6.138      8.914
REMARK  Name = ./3D_structures\o56_MMV1782222_3D.pdb
REMARK  6 active torsions:
REMARK  status: ('A' for Active; 'I' for Inactive)
REMARK    1  A    between atoms: C1_1  and  N1_2
REMARK    2  A    between atoms: N2_10  and  C24_32
REMARK    3  A    between atoms: N3_15  and  C11_16
REMARK    4  A    between atoms: C11_16  and  C12_17
REMARK    5  A    between atoms: C15_20  and  C16_21
REMARK    6  A    between atoms: C16_21  and  N4_22
REMARK                            x       y       z     vdW  Elec       q    Type
REMARK                         _______ _______ _______ _____ _____    ______ ____
ROOT
ATOM      1  C1  UNL     1     150.349 162.009 169.749  0.00  0.00    +0.000 C 
ATOM      2  N1  UNL     1     151.080 160.986 169.072  0.00  0.00    +0.000 N 
ATOM      3  C2  UNL     1     151.659 161.365 167.805  0.00  0.00    +0.000 A 
ATOM      4  C3  UNL     1     150.987 162.413 167.223  0.00  0.00    +0.000 A 
ATOM      5  C4  UNL     1     151.367 162.943 165.992  0.00  0.00    +0.000 A 
ATOM      6  C5  UNL     1     152.455 162.387 165.346  0.00  0.00    +0.000 A 
ATOM      7 CL1  UNL     1     152.970 163.029 163.782  0.00  0.00    +0.000 Cl
ATOM      8  C6  UNL     1     153.123 161.338 165.933  0.00  0.00    +0.000 A 
ATOM      9  C7  UNL     1     152.744 160.813 167.157  0.00  0.00    +0.000 A 
ATOM     10  N2  UNL     1     153.561 159.737 167.595  0.00  0.00    +0.000 N 
ATOM     11  C8  UNL     1     153.244 158.754 168.607  0.00  0.00    +0.000 C 
ATOM     12  O1  UNL     1     154.045 157.817 168.722  0.00  0.00    +0.000 OA
ATOM     13  C9  UNL     1     152.107 158.713 169.516  0.00  0.00    +0.000 A 
ATOM     14  C10 UNL     1     151.727 157.703 170.358  0.00  0.00    +0.000 A 
ATOM     15  N3  UNL     1     150.614 158.037 171.036  0.00  0.00    +0.000 N 
ATOM     16  N5  UNL     1     150.288 159.270 170.619  0.00  0.00    +0.000 NA
ATOM     17  C23 UNL     1     151.163 159.711 169.703  0.00  0.00    +0.000 A 
ENDROOT
BRANCH  10  18
ATOM     18  C24 UNL     1     154.815 159.656 166.943  0.00  0.00    +0.000 A 
ATOM     19  C25 UNL     1     154.995 158.827 165.858  0.00  0.00    +0.000 A 
ATOM     20  C26 UNL     1     156.215 158.758 165.238  0.00  0.00    +0.000 A 
ATOM     21  C27 UNL     1     157.273 159.532 165.713  0.00  0.00    +0.000 A 
ATOM     22  C28 UNL     1     157.087 160.352 166.792  0.00  0.00    +0.000 A 
ATOM     23  C29 UNL     1     155.860 160.423 167.415  0.00  0.00    +0.000 A 
ENDBRANCH  10  18
BRANCH  15  24
ATOM     24  C11 UNL     1     149.901 157.236 172.020  0.00  0.00    +0.000 C 
BRANCH  24  25
ATOM     25  C12 UNL     1     149.583 155.918 171.433  0.00  0.00    +0.000 A 
ATOM     26  C13 UNL     1     150.347 154.786 171.601  0.00  0.00    +0.000 A 
ATOM     27  C14 UNL     1     149.994 153.579 171.025  0.00  0.00    +0.000 A 
ATOM     28  C15 UNL     1     148.843 153.539 170.268  0.00  0.00    +0.000 A 
ATOM     29  C21 UNL     1     148.063 154.664 170.086  0.00  0.00    +0.000 A 
ATOM     30  C22 UNL     1     148.424 155.846 170.661  0.00  0.00    +0.000 A 
BRANCH  28  31
ATOM     31  C16 UNL     1     148.453 152.246 169.647  0.00  0.00    +0.000 C 
BRANCH  31  32
ATOM     32  N4  UNL     1     148.211 152.376 168.222  0.00  0.00    +0.000 NA
ATOM     33  C17 UNL     1     149.230 151.760 167.421  0.00  0.00    +0.000 C 
ATOM     34  C18 UNL     1     148.706 151.498 166.014  0.00  0.00    +0.000 C 
ATOM     35  O2  UNL     1     147.795 150.464 166.045  0.00  0.00    +0.000 OA
ATOM     36  C19 UNL     1     147.196 150.354 167.284  0.00  0.00    +0.000 C 
ATOM     37  C20 UNL     1     146.961 151.703 167.927  0.00  0.00    +0.000 C 
ENDBRANCH  31  32
ENDBRANCH  28  31
ENDBRANCH  24  25
ENDBRANCH  15  24
TORSDOF 5
ENDMDL
MODEL 5
REMARK VINA RESULT:      -7.3      4.123     10.733
REMARK  Name = ./3D_structures\o56_MMV1782222_3D.pdb
REMARK  6 active torsions:
REMARK  status: ('A' for Active; 'I' for Inactive)
REMARK    1  A    between atoms: C1_1  and  N1_2
REMARK    2  A    between atoms: N2_10  and  C24_32
REMARK    3  A    between atoms: N3_15  and  C11_16
REMARK    4  A    between atoms: C11_16  and  C12_17
REMARK    5  A    between atoms: C15_20  and  C16_21
REMARK    6  A    between atoms: C16_21  and  N4_22
REMARK                            x       y       z     vdW  Elec       q    Type
REMARK                         _______ _______ _______ _____ _____    ______ ____
ROOT
ATOM      1  C1  UNL     1     158.265 158.430 170.311  0.00  0.00    +0.000 C 
ATOM      2  N1  UNL     1     157.791 158.300 168.970  0.00  0.00    +0.000 N 
ATOM      3  C2  UNL     1     158.786 158.458 167.936  0.00  0.00    +0.000 A 
ATOM      4  C3  UNL     1     159.852 159.215 168.357  0.00  0.00    +0.000 A 
ATOM      5  C4  UNL     1     160.930 159.503 167.523  0.00  0.00    +0.000 A 
ATOM      6  C5  UNL     1     160.914 159.006 166.233  0.00  0.00    +0.000 A 
ATOM      7 CL1  UNL     1     162.260 159.348 165.142  0.00  0.00    +0.000 Cl
ATOM      8  C6  UNL     1     159.843 158.249 165.817  0.00  0.00    +0.000 A 
ATOM      9  C7  UNL     1     158.772 157.964 166.648  0.00  0.00    +0.000 A 
ATOM     10  N2  UNL     1     157.770 157.166 166.036  0.00  0.00    +0.000 N 
ATOM     11  C8  UNL     1     156.402 156.994 166.471  0.00  0.00    +0.000 C 
ATOM     12  O1  UNL     1     155.663 156.368 165.700  0.00  0.00    +0.000 OA
ATOM     13  C9  UNL     1     155.768 157.458 167.698  0.00  0.00    +0.000 A 
ATOM     14  C10 UNL     1     154.441 157.433 168.032  0.00  0.00    +0.000 A 
ATOM     15  N3  UNL     1     154.244 157.959 169.254  0.00  0.00    +0.000 N 
ATOM     16  N5  UNL     1     155.460 158.318 169.697  0.00  0.00    +0.000 NA
ATOM     17  C23 UNL     1     156.403 158.032 168.788  0.00  0.00    +0.000 A 
ENDROOT
BRANCH  10  18
ATOM     18  C24 UNL     1     158.202 156.480 164.875  0.00  0.00    +0.000 A 
ATOM     19  C25 UNL     1     158.764 155.225 164.965  0.00  0.00    +0.000 A 
ATOM     20  C26 UNL     1     159.179 154.574 163.833  0.00  0.00    +0.000 A 
ATOM     21  C27 UNL     1     159.028 155.189 162.590  0.00  0.00    +0.000 A 
ATOM     22  C28 UNL     1     158.469 156.435 162.510  0.00  0.00    +0.000 A 
ATOM     23  C29 UNL     1     158.051 157.090 163.648  0.00  0.00    +0.000 A 
ENDBRANCH  10  18
BRANCH  15  24
ATOM     24  C11 UNL     1     152.982 158.113 169.961  0.00  0.00    +0.000 C 
BRANCH  24  25
ATOM     25  C12 UNL     1     152.202 159.197 169.328  0.00  0.00    +0.000 A 
ATOM     26  C13 UNL     1     152.748 160.209 168.571  0.00  0.00    +0.000 A 
ATOM     27  C14 UNL     1     151.962 161.195 168.004  0.00  0.00    +0.000 A 
ATOM     28  C15 UNL     1     150.602 161.139 168.219  0.00  0.00    +0.000 A 
ATOM     29  C21 UNL     1     150.035 160.132 168.975  0.00  0.00    +0.000 A 
ATOM     30  C22 UNL     1     150.822 159.166 169.527  0.00  0.00    +0.000 A 
BRANCH  28  31
ATOM     31  C16 UNL     1     149.748 162.193 167.611  0.00  0.00    +0.000 C 
BRANCH  31  32
ATOM     32  N4  UNL     1     148.612 162.526 168.449  0.00  0.00    +0.000 NA
ATOM     33  C17 UNL     1     148.894 163.573 169.389  0.00  0.00    +0.000 C 
ATOM     34  C18 UNL     1     147.597 164.202 169.881  0.00  0.00    +0.000 C 
ATOM     35  O2  UNL     1     147.037 164.957 168.872  0.00  0.00    +0.000 OA
ATOM     36  C19 UNL     1     147.424 164.504 167.627  0.00  0.00    +0.000 C 
ATOM     37  C20 UNL     1     147.550 162.997 167.581  0.00  0.00    +0.000 C 
ENDBRANCH  31  32
ENDBRANCH  28  31
ENDBRANCH  24  25
ENDBRANCH  15  24
TORSDOF 5
ENDMDL
MODEL 6
REMARK VINA RESULT:      -7.0      5.909     10.380
REMARK  Name = ./3D_structures\o56_MMV1782222_3D.pdb
REMARK  6 active torsions:
REMARK  status: ('A' for Active; 'I' for Inactive)
REMARK    1  A    between atoms: C1_1  and  N1_2
REMARK    2  A    between atoms: N2_10  and  C24_32
REMARK    3  A    between atoms: N3_15  and  C11_16
REMARK    4  A    between atoms: C11_16  and  C12_17
REMARK    5  A    between atoms: C15_20  and  C16_21
REMARK    6  A    between atoms: C16_21  and  N4_22
REMARK                            x       y       z     vdW  Elec       q    Type
REMARK                         _______ _______ _______ _____ _____    ______ ____
ROOT
ATOM      1  C1  UNL     1     158.101 160.677 170.388  0.00  0.00    +0.000 C 
ATOM      2  N1  UNL     1     158.559 160.175 169.132  0.00  0.00    +0.000 N 
ATOM      3  C2  UNL     1     159.846 160.661 168.695  0.00  0.00    +0.000 A 
ATOM      4  C3  UNL     1     160.153 161.880 169.250  0.00  0.00    +0.000 A 
ATOM      5  C4  UNL     1     161.344 162.543 168.966  0.00  0.00    +0.000 A 
ATOM      6  C5  UNL     1     162.237 161.946 168.096  0.00  0.00    +0.000 A 
ATOM      7 CL1  UNL     1     163.760 162.754 167.707  0.00  0.00    +0.000 Cl
ATOM      8  C6  UNL     1     161.924 160.726 167.543  0.00  0.00    +0.000 A 
ATOM      9  C7  UNL     1     160.739 160.068 167.827  0.00  0.00    +0.000 A 
ATOM     10  N2  UNL     1     160.603 158.822 167.161  0.00  0.00    +0.000 N 
ATOM     11  C8  UNL     1     159.386 158.072 166.946  0.00  0.00    +0.000 C 
ATOM     12  O1  UNL     1     159.482 157.082 166.210  0.00  0.00    +0.000 OA
ATOM     13  C9  UNL     1     158.053 158.323 167.479  0.00  0.00    +0.000 A 
ATOM     14  C10 UNL     1     156.875 157.709 167.148  0.00  0.00    +0.000 A 
ATOM     15  N3  UNL     1     155.852 158.222 167.854  0.00  0.00    +0.000 N 
ATOM     16  N5  UNL     1     156.389 159.167 168.641  0.00  0.00    +0.000 NA
ATOM     17  C23 UNL     1     157.712 159.258 168.443  0.00  0.00    +0.000 A 
ENDROOT
BRANCH  10  18
ATOM     18  C24 UNL     1     161.820 158.289 166.670  0.00  0.00    +0.000 A 
ATOM     19  C25 UNL     1     162.248 158.569 165.391  0.00  0.00    +0.000 A 
ATOM     20  C26 UNL     1     163.427 158.046 164.929  0.00  0.00    +0.000 A 
ATOM     21  C27 UNL     1     164.191 157.227 165.762  0.00  0.00    +0.000 A 
ATOM     22  C28 UNL     1     163.758 156.953 167.031  0.00  0.00    +0.000 A 
ATOM     23  C29 UNL     1     162.573 157.480 167.496  0.00  0.00    +0.000 A 
ENDBRANCH  10  18
BRANCH  15  24
ATOM     24  C11 UNL     1     154.450 157.839 167.789  0.00  0.00    +0.000 C 
BRANCH  24  25
ATOM     25  C12 UNL     1     153.654 158.994 167.323  0.00  0.00    +0.000 A 
ATOM     26  C13 UNL     1     153.706 159.512 166.049  0.00  0.00    +0.000 A 
ATOM     27  C14 UNL     1     152.933 160.596 165.675  0.00  0.00    +0.000 A 
ATOM     28  C15 UNL     1     152.100 161.152 166.622  0.00  0.00    +0.000 A 
ATOM     29  C21 UNL     1     152.034 160.647 167.905  0.00  0.00    +0.000 A 
ATOM     30  C22 UNL     1     152.801 159.577 168.260  0.00  0.00    +0.000 A 
BRANCH  28  31
ATOM     31  C16 UNL     1     151.263 162.315 166.228  0.00  0.00    +0.000 C 
BRANCH  31  32
ATOM     32  N4  UNL     1     152.064 163.480 165.905  0.00  0.00    +0.000 NA
ATOM     33  C17 UNL     1     152.091 163.772 164.500  0.00  0.00    +0.000 C 
ATOM     34  C18 UNL     1     152.511 165.218 164.271  0.00  0.00    +0.000 C 
ATOM     35  O2  UNL     1     151.491 166.063 164.652  0.00  0.00    +0.000 OA
ATOM     36  C19 UNL     1     150.683 165.481 165.609  0.00  0.00    +0.000 C 
ATOM     37  C20 UNL     1     151.470 164.621 166.574  0.00  0.00    +0.000 C 
ENDBRANCH  31  32
ENDBRANCH  28  31
ENDBRANCH  24  25
ENDBRANCH  15  24
TORSDOF 5
ENDMDL
MODEL 7
REMARK VINA RESULT:      -6.9      1.913      2.454
REMARK  Name = ./3D_structures\o56_MMV1782222_3D.pdb
REMARK  6 active torsions:
REMARK  status: ('A' for Active; 'I' for Inactive)
REMARK    1  A    between atoms: C1_1  and  N1_2
REMARK    2  A    between atoms: N2_10  and  C24_32
REMARK    3  A    between atoms: N3_15  and  C11_16
REMARK    4  A    between atoms: C11_16  and  C12_17
REMARK    5  A    between atoms: C15_20  and  C16_21
REMARK    6  A    between atoms: C16_21  and  N4_22
REMARK                            x       y       z     vdW  Elec       q    Type
REMARK                         _______ _______ _______ _____ _____    ______ ____
ROOT
ATOM      1  C1  UNL     1     160.699 159.233 165.726  0.00  0.00    +0.000 C 
ATOM      2  N1  UNL     1     159.597 158.542 166.316  0.00  0.00    +0.000 N 
ATOM      3  C2  UNL     1     158.964 159.207 167.430  0.00  0.00    +0.000 A 
ATOM      4  C3  UNL     1     159.818 160.078 168.063  0.00  0.00    +0.000 A 
ATOM      5  C4  UNL     1     159.423 160.827 169.170  0.00  0.00    +0.000 A 
ATOM      6  C5  UNL     1     158.131 160.679 169.636  0.00  0.00    +0.000 A 
ATOM      7 CL1  UNL     1     157.590 161.609 171.038  0.00  0.00    +0.000 Cl
ATOM      8  C6  UNL     1     157.281 159.805 168.998  0.00  0.00    +0.000 A 
ATOM      9  C7  UNL     1     157.675 159.062 167.898  0.00  0.00    +0.000 A 
ATOM     10  N2  UNL     1     156.654 158.222 167.380  0.00  0.00    +0.000 N 
ATOM     11  C8  UNL     1     156.818 157.084 166.503  0.00  0.00    +0.000 C 
ATOM     12  O1  UNL     1     155.802 156.408 166.297  0.00  0.00    +0.000 OA
ATOM     13  C9  UNL     1     158.021 156.621 165.823  0.00  0.00    +0.000 A 
ATOM     14  C10 UNL     1     158.209 155.458 165.127  0.00  0.00    +0.000 A 
ATOM     15  N3  UNL     1     159.464 155.384 164.648  0.00  0.00    +0.000 N 
ATOM     16  N5  UNL     1     160.073 156.512 165.045  0.00  0.00    +0.000 NA
ATOM     17  C23 UNL     1     159.237 157.282 165.756  0.00  0.00    +0.000 A 
ENDROOT
BRANCH  10  18
ATOM     18  C24 UNL     1     155.346 158.574 167.793  0.00  0.00    +0.000 A 
ATOM     19  C25 UNL     1     154.764 157.969 168.885  0.00  0.00    +0.000 A 
ATOM     20  C26 UNL     1     153.497 158.319 169.272  0.00  0.00    +0.000 A 
ATOM     21  C27 UNL     1     152.801 159.291 168.553  0.00  0.00    +0.000 A 
ATOM     22  C28 UNL     1     153.386 159.886 167.468  0.00  0.00    +0.000 A 
ATOM     23  C29 UNL     1     154.661 159.535 167.080  0.00  0.00    +0.000 A 
ENDBRANCH  10  18
BRANCH  15  24
ATOM     24  C11 UNL     1     160.051 154.310 163.861  0.00  0.00    +0.000 C 
BRANCH  24  25
ATOM     25  C12 UNL     1     159.027 153.274 163.616  0.00  0.00    +0.000 A 
ATOM     26  C13 UNL     1     158.668 152.303 164.523  0.00  0.00    +0.000 A 
ATOM     27  C14 UNL     1     157.698 151.361 164.232  0.00  0.00    +0.000 A 
ATOM     28  C15 UNL     1     157.094 151.418 162.995  0.00  0.00    +0.000 A 
ATOM     29  C21 UNL     1     157.440 152.384 162.071  0.00  0.00    +0.000 A 
ATOM     30  C22 UNL     1     158.397 153.307 162.372  0.00  0.00    +0.000 A 
BRANCH  28  31
ATOM     31  C16 UNL     1     156.049 150.412 162.674  0.00  0.00    +0.000 C 
BRANCH  31  32
ATOM     32  N4  UNL     1     155.973 150.137 161.252  0.00  0.00    +0.000 NA
ATOM     33  C17 UNL     1     156.525 148.862 160.895  0.00  0.00    +0.000 C 
ATOM     34  C18 UNL     1     156.000 148.423 159.534  0.00  0.00    +0.000 C 
ATOM     35  O2  UNL     1     154.673 148.066 159.643  0.00  0.00    +0.000 OA
ATOM     36  C19 UNL     1     154.061 148.710 160.700  0.00  0.00    +0.000 C 
ATOM     37  C20 UNL     1     154.571 150.122 160.882  0.00  0.00    +0.000 C 
ENDBRANCH  31  32
ENDBRANCH  28  31
ENDBRANCH  24  25
ENDBRANCH  15  24
TORSDOF 5
ENDMDL
MODEL 8
REMARK VINA RESULT:      -6.8      5.614     11.446
REMARK  Name = ./3D_structures\o56_MMV1782222_3D.pdb
REMARK  6 active torsions:
REMARK  status: ('A' for Active; 'I' for Inactive)
REMARK    1  A    between atoms: C1_1  and  N1_2
REMARK    2  A    between atoms: N2_10  and  C24_32
REMARK    3  A    between atoms: N3_15  and  C11_16
REMARK    4  A    between atoms: C11_16  and  C12_17
REMARK    5  A    between atoms: C15_20  and  C16_21
REMARK    6  A    between atoms: C16_21  and  N4_22
REMARK                            x       y       z     vdW  Elec       q    Type
REMARK                         _______ _______ _______ _____ _____    ______ ____
ROOT
ATOM      1  C1  UNL     1     158.453 160.652 162.157  0.00  0.00    +0.000 C 
ATOM      2  N1  UNL     1     157.708 160.482 163.363  0.00  0.00    +0.000 N 
ATOM      3  C2  UNL     1     157.796 159.178 163.975  0.00  0.00    +0.000 A 
ATOM      4  C3  UNL     1     158.112 158.200 163.063  0.00  0.00    +0.000 A 
ATOM      5  C4  UNL     1     158.244 156.862 163.429  0.00  0.00    +0.000 A 
ATOM      6  C5  UNL     1     158.050 156.521 164.753  0.00  0.00    +0.000 A 
ATOM      7 CL1  UNL     1     158.207 154.835 165.260  0.00  0.00    +0.000 Cl
ATOM      8  C6  UNL     1     157.734 157.504 165.662  0.00  0.00    +0.000 A 
ATOM      9  C7  UNL     1     157.602 158.834 165.296  0.00  0.00    +0.000 A 
ATOM     10  N2  UNL     1     157.276 159.694 166.378  0.00  0.00    +0.000 N 
ATOM     11  C8  UNL     1     156.725 161.029 166.299  0.00  0.00    +0.000 C 
ATOM     12  O1  UNL     1     156.381 161.537 167.373  0.00  0.00    +0.000 OA
ATOM     13  C9  UNL     1     156.517 161.863 165.122  0.00  0.00    +0.000 A 
ATOM     14  C10 UNL     1     155.851 163.054 165.032  0.00  0.00    +0.000 A 
ATOM     15  N3  UNL     1     155.867 163.519 163.770  0.00  0.00    +0.000 N 
ATOM     16  N5  UNL     1     156.552 162.611 163.056  0.00  0.00    +0.000 NA
ATOM     17  C23 UNL     1     156.960 161.599 163.836  0.00  0.00    +0.000 A 
ENDROOT
BRANCH  10  18
ATOM     18  C24 UNL     1     157.537 159.146 167.657  0.00  0.00    +0.000 A 
ATOM     19  C25 UNL     1     156.550 158.491 168.360  0.00  0.00    +0.000 A 
ATOM     20  C26 UNL     1     156.817 157.967 169.597  0.00  0.00    +0.000 A 
ATOM     21  C27 UNL     1     158.094 158.100 170.140  0.00  0.00    +0.000 A 
ATOM     22  C28 UNL     1     159.069 158.752 169.437  0.00  0.00    +0.000 A 
ATOM     23  C29 UNL     1     158.802 159.279 168.192  0.00  0.00    +0.000 A 
ENDBRANCH  10  18
BRANCH  15  24
ATOM     24  C11 UNL     1     155.270 164.747 163.269  0.00  0.00    +0.000 C 
BRANCH  24  25
ATOM     25  C12 UNL     1     153.935 164.920 163.876  0.00  0.00    +0.000 A 
ATOM     26  C13 UNL     1     152.920 163.994 163.802  0.00  0.00    +0.000 A 
ATOM     27  C14 UNL     1     151.691 164.215 164.395  0.00  0.00    +0.000 A 
ATOM     28  C15 UNL     1     151.505 165.402 165.071  0.00  0.00    +0.000 A 
ATOM     29  C21 UNL     1     152.511 166.344 165.157  0.00  0.00    +0.000 A 
ATOM     30  C22 UNL     1     153.718 166.111 164.568  0.00  0.00    +0.000 A 
BRANCH  28  31
ATOM     31  C16 UNL     1     150.188 165.648 165.714  0.00  0.00    +0.000 C 
BRANCH  31  32
ATOM     32  N4  UNL     1     150.133 165.123 167.065  0.00  0.00    +0.000 NA
ATOM     33  C17 UNL     1     149.986 166.145 168.061  0.00  0.00    +0.000 C 
ATOM     34  C18 UNL     1     149.457 165.545 169.358  0.00  0.00    +0.000 C 
ATOM     35  O2  UNL     1     148.133 165.197 169.200  0.00  0.00    +0.000 OA
ATOM     36  C19 UNL     1     147.831 164.939 167.878  0.00  0.00    +0.000 C 
ATOM     37  C20 UNL     1     148.972 164.260 167.154  0.00  0.00    +0.000 C 
ENDBRANCH  31  32
ENDBRANCH  28  31
ENDBRANCH  24  25
ENDBRANCH  15  24
TORSDOF 5
ENDMDL
MODEL 9
REMARK VINA RESULT:      -6.7      5.588      9.627
REMARK  Name = ./3D_structures\o56_MMV1782222_3D.pdb
REMARK  6 active torsions:
REMARK  status: ('A' for Active; 'I' for Inactive)
REMARK    1  A    between atoms: C1_1  and  N1_2
REMARK    2  A    between atoms: N2_10  and  C24_32
REMARK    3  A    between atoms: N3_15  and  C11_16
REMARK    4  A    between atoms: C11_16  and  C12_17
REMARK    5  A    between atoms: C15_20  and  C16_21
REMARK    6  A    between atoms: C16_21  and  N4_22
REMARK                            x       y       z     vdW  Elec       q    Type
REMARK                         _______ _______ _______ _____ _____    ______ ____
ROOT
ATOM      1  C1  UNL     1     147.680 158.678 168.401  0.00  0.00    +0.000 C 
ATOM      2  N1  UNL     1     148.104 157.848 169.483  0.00  0.00    +0.000 N 
ATOM      3  C2  UNL     1     147.068 157.067 170.116  0.00  0.00    +0.000 A 
ATOM      4  C3  UNL     1     145.825 157.630 169.954  0.00  0.00    +0.000 A 
ATOM      5  C4  UNL     1     144.676 157.050 170.486  0.00  0.00    +0.000 A 
ATOM      6  C5  UNL     1     144.803 155.872 171.198  0.00  0.00    +0.000 A 
ATOM      7 CL1  UNL     1     143.371 155.104 171.891  0.00  0.00    +0.000 Cl
ATOM      8  C6  UNL     1     146.050 155.313 171.357  0.00  0.00    +0.000 A 
ATOM      9  C7  UNL     1     147.192 155.891 170.827  0.00  0.00    +0.000 A 
ATOM     10  N2  UNL     1     148.380 155.161 171.096  0.00  0.00    +0.000 N 
ATOM     11  C8  UNL     1     149.740 155.644 171.015  0.00  0.00    +0.000 C 
ATOM     12  O1  UNL     1     150.614 154.876 171.439  0.00  0.00    +0.000 OA
ATOM     13  C9  UNL     1     150.229 156.916 170.500  0.00  0.00    +0.000 A 
ATOM     14  C10 UNL     1     151.494 157.433 170.572  0.00  0.00    +0.000 A 
ATOM     15  N3  UNL     1     151.553 158.641 169.984  0.00  0.00    +0.000 N 
ATOM     16  N5  UNL     1     150.312 158.890 169.536  0.00  0.00    +0.000 NA
ATOM     17  C23 UNL     1     149.487 157.874 169.828  0.00  0.00    +0.000 A 
ENDROOT
BRANCH  10  18
ATOM     18  C24 UNL     1     148.161 153.817 171.483  0.00  0.00    +0.000 A 
ATOM     19  C25 UNL     1     148.117 153.463 172.814  0.00  0.00    +0.000 A 
ATOM     20  C26 UNL     1     147.907 152.158 173.173  0.00  0.00    +0.000 A 
ATOM     21  C27 UNL     1     147.737 151.190 172.183  0.00  0.00    +0.000 A 
ATOM     22  C28 UNL     1     147.783 151.549 170.863  0.00  0.00    +0.000 A 
ATOM     23  C29 UNL     1     147.994 152.862 170.502  0.00  0.00    +0.000 A 
ENDBRANCH  10  18
BRANCH  15  24
ATOM     24  C11 UNL     1     152.713 159.509 169.855  0.00  0.00    +0.000 C 
BRANCH  24  25
ATOM     25  C12 UNL     1     153.773 158.794 169.115  0.00  0.00    +0.000 A 
ATOM     26  C13 UNL     1     153.796 158.634 167.748  0.00  0.00    +0.000 A 
ATOM     27  C14 UNL     1     154.820 157.953 167.114  0.00  0.00    +0.000 A 
ATOM     28  C15 UNL     1     155.828 157.432 167.895  0.00  0.00    +0.000 A 
ATOM     29  C21 UNL     1     155.823 157.582 169.268  0.00  0.00    +0.000 A 
ATOM     30  C22 UNL     1     154.808 158.256 169.879  0.00  0.00    +0.000 A 
BRANCH  28  31
ATOM     31  C16 UNL     1     156.935 156.702 167.224  0.00  0.00    +0.000 C 
BRANCH  31  32
ATOM     32  N4  UNL     1     157.028 157.029 165.814  0.00  0.00    +0.000 NA
ATOM     33  C17 UNL     1     158.190 157.808 165.493  0.00  0.00    +0.000 C 
ATOM     34  C18 UNL     1     158.495 157.708 164.004  0.00  0.00    +0.000 C 
ATOM     35  O2  UNL     1     158.986 156.452 163.715  0.00  0.00    +0.000 OA
ATOM     36  C19 UNL     1     158.545 155.515 164.628  0.00  0.00    +0.000 C 
ATOM     37  C20 UNL     1     157.126 155.782 165.080  0.00  0.00    +0.000 C 
ENDBRANCH  31  32
ENDBRANCH  28  31
ENDBRANCH  24  25
ENDBRANCH  15  24
TORSDOF 5
ENDMDL
