MODEL 1
REMARK VINA RESULT:      -6.5      0.000      0.000
REMARK  Name = ./3D_structures\o57_MMV690706_3D.pdb
REMARK  7 active torsions:
REMARK  status: ('A' for Active; 'I' for Inactive)
REMARK    1  A    between atoms: O1_1  and  N1_2
REMARK    2  A    between atoms: C1_3  and  C2_5
REMARK    3  A    between atoms: C2_5  and  C3_6
REMARK    4  A    between atoms: C3_6  and  S1_7
REMARK    5  A    between atoms: S1_7  and  C4_10
REMARK    6  A    between atoms: C7_13  and  O5_14
REMARK    7  A    between atoms: O5_14  and  C8_15
REMARK                            x       y       z     vdW  Elec       q    Type
REMARK                         _______ _______ _______ _____ _____    ______ ____
ROOT
ATOM      1  S1  UNL     1     149.988 162.512 168.162  0.00  0.00    +0.000 S 
ATOM      2  O3  UNL     1     150.524 163.011 166.841  0.00  0.00    +0.000 OA
ATOM      3  O4  UNL     1     150.261 163.581 169.171  0.00  0.00    +0.000 OA
ENDROOT
BRANCH   1   4
ATOM      4  C4  UNL     1     150.893 161.106 168.616  0.00  0.00    +0.000 A 
ATOM      5  C5  UNL     1     152.026 160.782 167.899  0.00  0.00    +0.000 A 
ATOM      6  C6  UNL     1     152.820 159.693 168.169  0.00  0.00    +0.000 A 
ATOM      7  C7  UNL     1     152.462 158.879 169.218  0.00  0.00    +0.000 A 
ATOM      8  C14 UNL     1     151.336 159.176 169.954  0.00  0.00    +0.000 A 
ATOM      9  C15 UNL     1     150.554 160.275 169.664  0.00  0.00    +0.000 A 
BRANCH   7  10
ATOM     10  O5  UNL     1     153.259 157.778 169.495  0.00  0.00    +0.000 OA
BRANCH  10  11
ATOM     11  C8  UNL     1     154.639 157.890 169.457  0.00  0.00    +0.000 A 
ATOM     12  C9  UNL     1     155.373 157.202 168.518  0.00  0.00    +0.000 A 
ATOM     13  C10 UNL     1     156.733 157.304 168.470  0.00  0.00    +0.000 A 
ATOM     14  C11 UNL     1     157.393 158.111 169.378  0.00  0.00    +0.000 A 
ATOM     15 CL1  UNL     1     159.142 158.287 169.374  0.00  0.00    +0.000 Cl
ATOM     16  C12 UNL     1     156.679 158.807 170.326  0.00  0.00    +0.000 A 
ATOM     17  C13 UNL     1     155.304 158.693 170.360  0.00  0.00    +0.000 A 
ENDBRANCH  10  11
ENDBRANCH   7  10
ENDBRANCH   1   4
BRANCH   1  18
ATOM     18  C3  UNL     1     148.274 162.184 167.957  0.00  0.00    +0.000 C 
BRANCH  18  19
ATOM     19  C2  UNL     1     147.434 163.382 168.254  0.00  0.00    +0.000 C 
ATOM     20  C16 UNL     1     147.658 163.835 169.679  0.00  0.00    +0.000 C 
ATOM     21  C17 UNL     1     146.413 164.500 170.167  0.00  0.00    +0.000 C 
ATOM     22  O6  UNL     1     145.759 165.198 169.154  0.00  0.00    +0.000 OA
ATOM     23  C18 UNL     1     145.200 164.323 168.215  0.00  0.00    +0.000 C 
ATOM     24  C19 UNL     1     145.954 163.010 168.183  0.00  0.00    +0.000 C 
BRANCH  19  26
ATOM     25  N1  UNL     1     148.498 165.600 167.652  0.00  0.00    +0.000 N 
ATOM     26  C1  UNL     1     147.682 164.493 167.287  0.00  0.00    +0.000 C 
ATOM     27  O2  UNL     1     147.195 164.508 166.127  0.00  0.00    +0.000 OA
ATOM     28  H2  UNL     1     148.905 165.580 168.630  0.00  0.00    +0.000 HD
BRANCH  25  29
ATOM     29  O1  UNL     1     148.746 166.628 166.798  0.00  0.00    +0.000 OA
ATOM     30  H1  UNL     1     148.597 167.462 167.339  0.00  0.00    +0.000 HD
ENDBRANCH  25  29
ENDBRANCH  19  26
ENDBRANCH  18  19
ENDBRANCH   1  18
TORSDOF 7
ENDMDL
MODEL 2
REMARK VINA RESULT:      -6.3      8.245     11.272
REMARK  Name = ./3D_structures\o57_MMV690706_3D.pdb
REMARK  7 active torsions:
REMARK  status: ('A' for Active; 'I' for Inactive)
REMARK    1  A    between atoms: O1_1  and  N1_2
REMARK    2  A    between atoms: C1_3  and  C2_5
REMARK    3  A    between atoms: C2_5  and  C3_6
REMARK    4  A    between atoms: C3_6  and  S1_7
REMARK    5  A    between atoms: S1_7  and  C4_10
REMARK    6  A    between atoms: C7_13  and  O5_14
REMARK    7  A    between atoms: O5_14  and  C8_15
REMARK                            x       y       z     vdW  Elec       q    Type
REMARK                         _______ _______ _______ _____ _____    ______ ____
ROOT
ATOM      1  S1  UNL     1     157.473 156.934 165.578  0.00  0.00    +0.000 S 
ATOM      2  O3  UNL     1     156.975 158.137 164.813  0.00  0.00    +0.000 OA
ATOM      3  O4  UNL     1     156.457 155.852 165.389  0.00  0.00    +0.000 OA
ENDROOT
BRANCH   1   4
ATOM      4  C4  UNL     1     157.512 157.341 167.260  0.00  0.00    +0.000 A 
ATOM      5  C5  UNL     1     158.605 158.022 167.756  0.00  0.00    +0.000 A 
ATOM      6  C6  UNL     1     158.743 158.397 169.071  0.00  0.00    +0.000 A 
ATOM      7  C7  UNL     1     157.730 158.074 169.944  0.00  0.00    +0.000 A 
ATOM      8  C14 UNL     1     156.626 157.394 169.479  0.00  0.00    +0.000 A 
ATOM      9  C15 UNL     1     156.509 157.028 168.154  0.00  0.00    +0.000 A 
BRANCH   7  10
ATOM     10  O5  UNL     1     157.865 158.449 171.272  0.00  0.00    +0.000 OA
BRANCH  10  11
ATOM     11  C8  UNL     1     157.051 159.436 171.803  0.00  0.00    +0.000 A 
ATOM     12  C9  UNL     1     157.235 160.757 171.462  0.00  0.00    +0.000 A 
ATOM     13  C10 UNL     1     156.439 161.738 171.979  0.00  0.00    +0.000 A 
ATOM     14  C11 UNL     1     155.428 161.408 172.861  0.00  0.00    +0.000 A 
ATOM     15 CL1  UNL     1     154.368 162.621 173.565  0.00  0.00    +0.000 Cl
ATOM     16  C12 UNL     1     155.226 160.094 173.216  0.00  0.00    +0.000 A 
ATOM     17  C13 UNL     1     156.039 159.114 172.684  0.00  0.00    +0.000 A 
ENDBRANCH  10  11
ENDBRANCH   7  10
ENDBRANCH   1   4
BRANCH   1  18
ATOM     18  C3  UNL     1     159.054 156.508 164.941  0.00  0.00    +0.000 C 
BRANCH  18  19
ATOM     19  C2  UNL     1     158.999 155.306 164.058  0.00  0.00    +0.000 C 
ATOM     20  C16 UNL     1     158.662 154.076 164.871  0.00  0.00    +0.000 C 
ATOM     21  C17 UNL     1     159.268 152.886 164.205  0.00  0.00    +0.000 C 
ATOM     22  O6  UNL     1     159.267 153.003 162.816  0.00  0.00    +0.000 OA
ATOM     23  C18 UNL     1     160.166 153.988 162.390  0.00  0.00    +0.000 C 
ATOM     24  C19 UNL     1     160.382 155.028 163.471  0.00  0.00    +0.000 C 
BRANCH  19  26
ATOM     25  N1  UNL     1     156.938 154.602 162.765  0.00  0.00    +0.000 N 
ATOM     26  C1  UNL     1     158.040 155.486 162.926  0.00  0.00    +0.000 C 
ATOM     27  O2  UNL     1     158.154 156.408 162.077  0.00  0.00    +0.000 OA
ATOM     28  H2  UNL     1     156.849 153.828 163.485  0.00  0.00    +0.000 HD
BRANCH  25  29
ATOM     29  O1  UNL     1     156.046 154.735 161.749  0.00  0.00    +0.000 OA
ATOM     30  H1  UNL     1     156.134 153.893 161.207  0.00  0.00    +0.000 HD
ENDBRANCH  25  29
ENDBRANCH  19  26
ENDBRANCH  18  19
ENDBRANCH   1  18
TORSDOF 7
ENDMDL
MODEL 3
REMARK VINA RESULT:      -6.3      1.489      2.267
REMARK  Name = ./3D_structures\o57_MMV690706_3D.pdb
REMARK  7 active torsions:
REMARK  status: ('A' for Active; 'I' for Inactive)
REMARK    1  A    between atoms: O1_1  and  N1_2
REMARK    2  A    between atoms: C1_3  and  C2_5
REMARK    3  A    between atoms: C2_5  and  C3_6
REMARK    4  A    between atoms: C3_6  and  S1_7
REMARK    5  A    between atoms: S1_7  and  C4_10
REMARK    6  A    between atoms: C7_13  and  O5_14
REMARK    7  A    between atoms: O5_14  and  C8_15
REMARK                            x       y       z     vdW  Elec       q    Type
REMARK                         _______ _______ _______ _____ _____    ______ ____
ROOT
ATOM      1  S1  UNL     1     150.004 161.701 167.752  0.00  0.00    +0.000 S 
ATOM      2  O3  UNL     1     148.991 160.955 166.915  0.00  0.00    +0.000 OA
ATOM      3  O4  UNL     1     150.677 162.681 166.845  0.00  0.00    +0.000 OA
ENDROOT
BRANCH   1   4
ATOM      4  C4  UNL     1     151.197 160.569 168.293  0.00  0.00    +0.000 A 
ATOM      5  C5  UNL     1     150.906 159.757 169.370  0.00  0.00    +0.000 A 
ATOM      6  C6  UNL     1     151.774 158.824 169.884  0.00  0.00    +0.000 A 
ATOM      7  C7  UNL     1     153.007 158.692 169.288  0.00  0.00    +0.000 A 
ATOM      8  C14 UNL     1     153.327 159.488 168.210  0.00  0.00    +0.000 A 
ATOM      9  C15 UNL     1     152.439 160.419 167.711  0.00  0.00    +0.000 A 
BRANCH   7  10
ATOM     10  O5  UNL     1     153.887 157.752 169.803  0.00  0.00    +0.000 OA
BRANCH  10  11
ATOM     11  C8  UNL     1     155.247 157.866 169.563  0.00  0.00    +0.000 A 
ATOM     12  C9  UNL     1     155.836 157.176 168.528  0.00  0.00    +0.000 A 
ATOM     13  C10 UNL     1     157.175 157.280 168.282  0.00  0.00    +0.000 A 
ATOM     14  C11 UNL     1     157.959 158.090 169.082  0.00  0.00    +0.000 A 
ATOM     15 CL1  UNL     1     159.689 158.269 168.821  0.00  0.00    +0.000 Cl
ATOM     16  C12 UNL     1     157.390 158.788 170.122  0.00  0.00    +0.000 A 
ATOM     17  C13 UNL     1     156.035 158.672 170.357  0.00  0.00    +0.000 A 
ENDBRANCH  10  11
ENDBRANCH   7  10
ENDBRANCH   1   4
BRANCH   1  18
ATOM     18  C3  UNL     1     149.143 162.472 169.076  0.00  0.00    +0.000 C 
BRANCH  18  19
ATOM     19  C2  UNL     1     147.958 163.245 168.601  0.00  0.00    +0.000 C 
ATOM     20  C16 UNL     1     148.367 164.212 167.514  0.00  0.00    +0.000 C 
ATOM     21  C17 UNL     1     147.441 165.383 167.548  0.00  0.00    +0.000 C 
ATOM     22  O6  UNL     1     146.145 165.018 167.906  0.00  0.00    +0.000 OA
ATOM     23  C18 UNL     1     146.080 164.635 169.251  0.00  0.00    +0.000 C 
ATOM     24  C19 UNL     1     147.421 164.121 169.733  0.00  0.00    +0.000 C 
BRANCH  19  26
ATOM     25  N1  UNL     1     146.484 162.303 166.770  0.00  0.00    +0.000 N 
ATOM     26  C1  UNL     1     146.854 162.349 168.142  0.00  0.00    +0.000 C 
ATOM     27  O2  UNL     1     146.208 161.607 168.926  0.00  0.00    +0.000 OA
ATOM     28  H2  UNL     1     147.033 162.931 166.115  0.00  0.00    +0.000 HD
BRANCH  25  29
ATOM     29  O1  UNL     1     145.486 161.501 166.315  0.00  0.00    +0.000 OA
ATOM     30  H1  UNL     1     145.182 161.919 165.454  0.00  0.00    +0.000 HD
ENDBRANCH  25  29
ENDBRANCH  19  26
ENDBRANCH  18  19
ENDBRANCH   1  18
TORSDOF 7
ENDMDL
MODEL 4
REMARK VINA RESULT:      -6.2      1.935      2.777
REMARK  Name = ./3D_structures\o57_MMV690706_3D.pdb
REMARK  7 active torsions:
REMARK  status: ('A' for Active; 'I' for Inactive)
REMARK    1  A    between atoms: O1_1  and  N1_2
REMARK    2  A    between atoms: C1_3  and  C2_5
REMARK    3  A    between atoms: C2_5  and  C3_6
REMARK    4  A    between atoms: C3_6  and  S1_7
REMARK    5  A    between atoms: S1_7  and  C4_10
REMARK    6  A    between atoms: C7_13  and  O5_14
REMARK    7  A    between atoms: O5_14  and  C8_15
REMARK                            x       y       z     vdW  Elec       q    Type
REMARK                         _______ _______ _______ _____ _____    ______ ____
ROOT
ATOM      1  S1  UNL     1     150.395 160.860 168.748  0.00  0.00    +0.000 S 
ATOM      2  O3  UNL     1     149.233 159.927 168.990  0.00  0.00    +0.000 OA
ATOM      3  O4  UNL     1     150.487 161.061 167.268  0.00  0.00    +0.000 OA
ENDROOT
BRANCH   1   4
ATOM      4  C4  UNL     1     151.843 160.066 169.269  0.00  0.00    +0.000 A 
ATOM      5  C5  UNL     1     151.854 158.689 169.357  0.00  0.00    +0.000 A 
ATOM      6  C6  UNL     1     152.945 157.955 169.757  0.00  0.00    +0.000 A 
ATOM      7  C7  UNL     1     154.094 158.634 170.089  0.00  0.00    +0.000 A 
ATOM      8  C14 UNL     1     154.115 160.010 170.010  0.00  0.00    +0.000 A 
ATOM      9  C15 UNL     1     153.007 160.726 169.606  0.00  0.00    +0.000 A 
BRANCH   7  10
ATOM     10  O5  UNL     1     155.197 157.898 170.493  0.00  0.00    +0.000 OA
BRANCH  10  11
ATOM     11  C8  UNL     1     156.389 157.987 169.792  0.00  0.00    +0.000 A 
ATOM     12  C9  UNL     1     156.464 157.573 168.482  0.00  0.00    +0.000 A 
ATOM     13  C10 UNL     1     157.633 157.656 167.781  0.00  0.00    +0.000 A 
ATOM     14  C11 UNL     1     158.765 158.161 168.391  0.00  0.00    +0.000 A 
ATOM     15 CL1  UNL     1     160.302 158.293 167.548  0.00  0.00    +0.000 Cl
ATOM     16  C12 UNL     1     158.713 158.579 169.701  0.00  0.00    +0.000 A 
ATOM     17  C13 UNL     1     157.523 158.490 170.395  0.00  0.00    +0.000 A 
ENDBRANCH  10  11
ENDBRANCH   7  10
ENDBRANCH   1   4
BRANCH   1  18
ATOM     18  C3  UNL     1     150.080 162.350 169.623  0.00  0.00    +0.000 C 
BRANCH  18  19
ATOM     19  C2  UNL     1     149.154 163.254 168.879  0.00  0.00    +0.000 C 
ATOM     20  C16 UNL     1     149.840 163.807 167.650  0.00  0.00    +0.000 C 
ATOM     21  C17 UNL     1     149.250 165.142 167.337  0.00  0.00    +0.000 C 
ATOM     22  O6  UNL     1     147.890 165.200 167.640  0.00  0.00    +0.000 OA
ATOM     23  C18 UNL     1     147.679 165.173 169.024  0.00  0.00    +0.000 C 
ATOM     24  C19 UNL     1     148.822 164.477 169.733  0.00  0.00    +0.000 C 
BRANCH  19  26
ATOM     25  N1  UNL     1     147.628 162.145 167.190  0.00  0.00    +0.000 N 
ATOM     26  C1  UNL     1     147.873 162.573 168.524  0.00  0.00    +0.000 C 
ATOM     27  O2  UNL     1     146.965 162.347 169.365  0.00  0.00    +0.000 OA
ATOM     28  H2  UNL     1     148.398 162.338 166.487  0.00  0.00    +0.000 HD
BRANCH  25  29
ATOM     29  O1  UNL     1     146.475 161.521 166.830  0.00  0.00    +0.000 OA
ATOM     30  H1  UNL     1     145.991 161.344 167.692  0.00  0.00    +0.000 HD
ENDBRANCH  25  29
ENDBRANCH  19  26
ENDBRANCH  18  19
ENDBRANCH   1  18
TORSDOF 7
ENDMDL
MODEL 5
REMARK VINA RESULT:      -6.1      2.163      2.872
REMARK  Name = ./3D_structures\o57_MMV690706_3D.pdb
REMARK  7 active torsions:
REMARK  status: ('A' for Active; 'I' for Inactive)
REMARK    1  A    between atoms: O1_1  and  N1_2
REMARK    2  A    between atoms: C1_3  and  C2_5
REMARK    3  A    between atoms: C2_5  and  C3_6
REMARK    4  A    between atoms: C3_6  and  S1_7
REMARK    5  A    between atoms: S1_7  and  C4_10
REMARK    6  A    between atoms: C7_13  and  O5_14
REMARK    7  A    between atoms: O5_14  and  C8_15
REMARK                            x       y       z     vdW  Elec       q    Type
REMARK                         _______ _______ _______ _____ _____    ______ ____
ROOT
ATOM      1  S1  UNL     1     149.572 160.990 168.374  0.00  0.00    +0.000 S 
ATOM      2  O3  UNL     1     148.584 159.921 168.776  0.00  0.00    +0.000 OA
ATOM      3  O4  UNL     1     149.370 161.237 166.912  0.00  0.00    +0.000 OA
ENDROOT
BRANCH   1   4
ATOM      4  C4  UNL     1     151.170 160.360 168.592  0.00  0.00    +0.000 A 
ATOM      5  C5  UNL     1     152.231 161.011 167.997  0.00  0.00    +0.000 A 
ATOM      6  C6  UNL     1     153.539 160.602 168.103  0.00  0.00    +0.000 A 
ATOM      7  C7  UNL     1     153.805 159.476 168.847  0.00  0.00    +0.000 A 
ATOM      8  C14 UNL     1     152.767 158.804 169.454  0.00  0.00    +0.000 A 
ATOM      9  C15 UNL     1     151.461 159.233 169.334  0.00  0.00    +0.000 A 
BRANCH   7  10
ATOM     10  O5  UNL     1     155.123 159.059 168.957  0.00  0.00    +0.000 OA
BRANCH  10  11
ATOM     11  C8  UNL     1     155.667 158.210 168.007  0.00  0.00    +0.000 A 
ATOM     12  C9  UNL     1     155.079 158.074 166.769  0.00  0.00    +0.000 A 
ATOM     13  C10 UNL     1     155.606 157.241 165.825  0.00  0.00    +0.000 A 
ATOM     14  C11 UNL     1     156.749 156.517 166.109  0.00  0.00    +0.000 A 
ATOM     15 CL1  UNL     1     157.479 155.425 164.940  0.00  0.00    +0.000 Cl
ATOM     16  C12 UNL     1     157.351 156.637 167.340  0.00  0.00    +0.000 A 
ATOM     17  C13 UNL     1     156.807 157.485 168.283  0.00  0.00    +0.000 A 
ENDBRANCH  10  11
ENDBRANCH   7  10
ENDBRANCH   1   4
BRANCH   1  18
ATOM     18  C3  UNL     1     149.258 162.411 169.358  0.00  0.00    +0.000 C 
BRANCH  18  19
ATOM     19  C2  UNL     1     148.234 163.306 168.742  0.00  0.00    +0.000 C 
ATOM     20  C16 UNL     1     148.839 164.078 167.592  0.00  0.00    +0.000 C 
ATOM     21  C17 UNL     1     148.115 165.376 167.457  0.00  0.00    +0.000 C 
ATOM     22  O6  UNL     1     146.763 165.259 167.774  0.00  0.00    +0.000 OA
ATOM     23  C18 UNL     1     146.580 165.034 169.144  0.00  0.00    +0.000 C 
ATOM     24  C19 UNL     1     147.800 164.370 169.750  0.00  0.00    +0.000 C 
BRANCH  19  26
ATOM     25  N1  UNL     1     146.730 162.380 166.927  0.00  0.00    +0.000 N 
ATOM     26  C1  UNL     1     147.020 162.552 168.309  0.00  0.00    +0.000 C 
ATOM     27  O2  UNL     1     146.209 162.040 169.124  0.00  0.00    +0.000 OA
ATOM     28  H2  UNL     1     147.418 162.813 166.247  0.00  0.00    +0.000 HD
BRANCH  25  29
ATOM     29  O1  UNL     1     145.636 161.699 166.496  0.00  0.00    +0.000 OA
ATOM     30  H1  UNL     1     145.055 162.388 166.051  0.00  0.00    +0.000 HD
ENDBRANCH  25  29
ENDBRANCH  19  26
ENDBRANCH  18  19
ENDBRANCH   1  18
TORSDOF 7
ENDMDL
MODEL 6
REMARK VINA RESULT:      -6.1      1.581      2.088
REMARK  Name = ./3D_structures\o57_MMV690706_3D.pdb
REMARK  7 active torsions:
REMARK  status: ('A' for Active; 'I' for Inactive)
REMARK    1  A    between atoms: O1_1  and  N1_2
REMARK    2  A    between atoms: C1_3  and  C2_5
REMARK    3  A    between atoms: C2_5  and  C3_6
REMARK    4  A    between atoms: C3_6  and  S1_7
REMARK    5  A    between atoms: S1_7  and  C4_10
REMARK    6  A    between atoms: C7_13  and  O5_14
REMARK    7  A    between atoms: O5_14  and  C8_15
REMARK                            x       y       z     vdW  Elec       q    Type
REMARK                         _______ _______ _______ _____ _____    ______ ____
ROOT
ATOM      1  S1  UNL     1     150.336 163.222 167.344  0.00  0.00    +0.000 S 
ATOM      2  O3  UNL     1     150.249 164.234 166.226  0.00  0.00    +0.000 OA
ATOM      3  O4  UNL     1     150.900 163.937 168.531  0.00  0.00    +0.000 OA
ENDROOT
BRANCH   1   4
ATOM      4  C4  UNL     1     151.464 161.995 166.876  0.00  0.00    +0.000 A 
ATOM      5  C5  UNL     1     151.891 161.086 167.822  0.00  0.00    +0.000 A 
ATOM      6  C6  UNL     1     152.782 160.071 167.564  0.00  0.00    +0.000 A 
ATOM      7  C7  UNL     1     153.276 159.956 166.286  0.00  0.00    +0.000 A 
ATOM      8  C14 UNL     1     152.869 160.848 165.318  0.00  0.00    +0.000 A 
ATOM      9  C15 UNL     1     151.973 161.860 165.601  0.00  0.00    +0.000 A 
BRANCH   7  10
ATOM     10  O5  UNL     1     154.175 158.934 166.020  0.00  0.00    +0.000 OA
BRANCH  10  11
ATOM     11  C8  UNL     1     155.287 158.757 166.827  0.00  0.00    +0.000 A 
ATOM     12  C9  UNL     1     155.492 157.565 167.485  0.00  0.00    +0.000 A 
ATOM     13  C10 UNL     1     156.584 157.378 168.283  0.00  0.00    +0.000 A 
ATOM     14  C11 UNL     1     157.503 158.399 168.439  0.00  0.00    +0.000 A 
ATOM     15 CL1  UNL     1     158.930 158.225 169.452  0.00  0.00    +0.000 Cl
ATOM     16  C12 UNL     1     157.317 159.598 167.792  0.00  0.00    +0.000 A 
ATOM     17  C13 UNL     1     156.208 159.770 166.988  0.00  0.00    +0.000 A 
ENDBRANCH  10  11
ENDBRANCH   7  10
ENDBRANCH   1   4
BRANCH   1  18
ATOM     18  C3  UNL     1     148.720 162.593 167.627  0.00  0.00    +0.000 C 
BRANCH  18  19
ATOM     19  C2  UNL     1     147.766 163.663 168.043  0.00  0.00    +0.000 C 
ATOM     20  C16 UNL     1     148.378 164.513 169.133  0.00  0.00    +0.000 C 
ATOM     21  C17 UNL     1     147.280 165.059 169.984  0.00  0.00    +0.000 C 
ATOM     22  O6  UNL     1     146.130 165.336 169.245  0.00  0.00    +0.000 OA
ATOM     23  C18 UNL     1     145.516 164.158 168.803  0.00  0.00    +0.000 C 
ATOM     24  C19 UNL     1     146.526 163.035 168.679  0.00  0.00    +0.000 C 
BRANCH  19  26
ATOM     25  N1  UNL     1     147.816 165.823 166.723  0.00  0.00    +0.000 N 
ATOM     26  C1  UNL     1     147.323 164.499 166.887  0.00  0.00    +0.000 C 
ATOM     27  O2  UNL     1     146.512 164.086 166.019  0.00  0.00    +0.000 OA
ATOM     28  H2  UNL     1     148.499 166.163 167.458  0.00  0.00    +0.000 HD
BRANCH  25  29
ATOM     29  O1  UNL     1     147.436 166.612 165.684  0.00  0.00    +0.000 OA
ATOM     30  H1  UNL     1     147.860 166.200 164.871  0.00  0.00    +0.000 HD
ENDBRANCH  25  29
ENDBRANCH  19  26
ENDBRANCH  18  19
ENDBRANCH   1  18
TORSDOF 7
ENDMDL
MODEL 7
REMARK VINA RESULT:      -6.0      2.284      3.441
REMARK  Name = ./3D_structures\o57_MMV690706_3D.pdb
REMARK  7 active torsions:
REMARK  status: ('A' for Active; 'I' for Inactive)
REMARK    1  A    between atoms: O1_1  and  N1_2
REMARK    2  A    between atoms: C1_3  and  C2_5
REMARK    3  A    between atoms: C2_5  and  C3_6
REMARK    4  A    between atoms: C3_6  and  S1_7
REMARK    5  A    between atoms: S1_7  and  C4_10
REMARK    6  A    between atoms: C7_13  and  O5_14
REMARK    7  A    between atoms: O5_14  and  C8_15
REMARK                            x       y       z     vdW  Elec       q    Type
REMARK                         _______ _______ _______ _____ _____    ______ ____
ROOT
ATOM      1  S1  UNL     1     151.671 161.783 166.800  0.00  0.00    +0.000 S 
ATOM      2  O3  UNL     1     150.333 161.302 166.292  0.00  0.00    +0.000 OA
ATOM      3  O4  UNL     1     152.282 162.598 165.705  0.00  0.00    +0.000 OA
ENDROOT
BRANCH   1   4
ATOM      4  C4  UNL     1     152.679 160.400 167.063  0.00  0.00    +0.000 A 
ATOM      5  C5  UNL     1     153.383 159.877 165.998  0.00  0.00    +0.000 A 
ATOM      6  C6  UNL     1     154.212 158.784 166.089  0.00  0.00    +0.000 A 
ATOM      7  C7  UNL     1     154.348 158.178 167.317  0.00  0.00    +0.000 A 
ATOM      8  C14 UNL     1     153.658 158.678 168.400  0.00  0.00    +0.000 A 
ATOM      9  C15 UNL     1     152.831 159.776 168.284  0.00  0.00    +0.000 A 
BRANCH   7  10
ATOM     10  O5  UNL     1     155.183 157.075 167.415  0.00  0.00    +0.000 OA
BRANCH  10  11
ATOM     11  C8  UNL     1     156.524 157.185 167.086  0.00  0.00    +0.000 A 
ATOM     12  C9  UNL     1     157.357 158.013 167.804  0.00  0.00    +0.000 A 
ATOM     13  C10 UNL     1     158.680 158.129 167.489  0.00  0.00    +0.000 A 
ATOM     14  C11 UNL     1     159.200 157.407 166.432  0.00  0.00    +0.000 A 
ATOM     15 CL1  UNL     1     160.894 157.510 165.972  0.00  0.00    +0.000 Cl
ATOM     16  C12 UNL     1     158.385 156.574 165.700  0.00  0.00    +0.000 A 
ATOM     17  C13 UNL     1     157.050 156.467 166.032  0.00  0.00    +0.000 A 
ENDBRANCH  10  11
ENDBRANCH   7  10
ENDBRANCH   1   4
BRANCH   1  18
ATOM     18  C3  UNL     1     151.388 162.710 168.266  0.00  0.00    +0.000 C 
BRANCH  18  19
ATOM     19  C2  UNL     1     150.148 163.537 168.177  0.00  0.00    +0.000 C 
ATOM     20  C16 UNL     1     150.190 164.410 166.943  0.00  0.00    +0.000 C 
ATOM     21  C17 UNL     1     149.392 165.643 167.206  0.00  0.00    +0.000 C 
ATOM     22  O6  UNL     1     148.291 165.392 168.023  0.00  0.00    +0.000 OA
ATOM     23  C18 UNL     1     148.688 165.092 169.331  0.00  0.00    +0.000 C 
ATOM     24  C19 UNL     1     150.088 164.512 169.352  0.00  0.00    +0.000 C 
BRANCH  19  26
ATOM     25  N1  UNL     1     148.022 162.686 167.096  0.00  0.00    +0.000 N 
ATOM     26  C1  UNL     1     148.913 162.698 168.205  0.00  0.00    +0.000 C 
ATOM     27  O2  UNL     1     148.602 161.974 169.187  0.00  0.00    +0.000 OA
ATOM     28  H2  UNL     1     148.290 163.298 166.273  0.00  0.00    +0.000 HD
BRANCH  25  29
ATOM     29  O1  UNL     1     146.889 161.935 167.085  0.00  0.00    +0.000 OA
ATOM     30  H1  UNL     1     146.424 162.147 167.950  0.00  0.00    +0.000 HD
ENDBRANCH  25  29
ENDBRANCH  19  26
ENDBRANCH  18  19
ENDBRANCH   1  18
TORSDOF 7
ENDMDL
MODEL 8
REMARK VINA RESULT:      -5.9      2.235      2.746
REMARK  Name = ./3D_structures\o57_MMV690706_3D.pdb
REMARK  7 active torsions:
REMARK  status: ('A' for Active; 'I' for Inactive)
REMARK    1  A    between atoms: O1_1  and  N1_2
REMARK    2  A    between atoms: C1_3  and  C2_5
REMARK    3  A    between atoms: C2_5  and  C3_6
REMARK    4  A    between atoms: C3_6  and  S1_7
REMARK    5  A    between atoms: S1_7  and  C4_10
REMARK    6  A    between atoms: C7_13  and  O5_14
REMARK    7  A    between atoms: O5_14  and  C8_15
REMARK                            x       y       z     vdW  Elec       q    Type
REMARK                         _______ _______ _______ _____ _____    ______ ____
ROOT
ATOM      1  S1  UNL     1     152.035 162.407 167.225  0.00  0.00    +0.000 S 
ATOM      2  O3  UNL     1     152.535 163.147 166.007  0.00  0.00    +0.000 OA
ATOM      3  O4  UNL     1     152.456 163.204 168.418  0.00  0.00    +0.000 OA
ENDROOT
BRANCH   1   4
ATOM      4  C4  UNL     1     152.841 160.875 167.295  0.00  0.00    +0.000 A 
ATOM      5  C5  UNL     1     153.373 160.348 166.137  0.00  0.00    +0.000 A 
ATOM      6  C6  UNL     1     154.032 159.144 166.074  0.00  0.00    +0.000 A 
ATOM      7  C7  UNL     1     154.170 158.422 167.237  0.00  0.00    +0.000 A 
ATOM      8  C14 UNL     1     153.650 158.923 168.411  0.00  0.00    +0.000 A 
ATOM      9  C15 UNL     1     152.991 160.135 168.449  0.00  0.00    +0.000 A 
BRANCH   7  10
ATOM     10  O5  UNL     1     154.835 157.207 167.180  0.00  0.00    +0.000 OA
BRANCH  10  11
ATOM     11  C8  UNL     1     156.167 157.158 166.806  0.00  0.00    +0.000 A 
ATOM     12  C9  UNL     1     156.556 156.457 165.687  0.00  0.00    +0.000 A 
ATOM     13  C10 UNL     1     157.867 156.401 165.308  0.00  0.00    +0.000 A 
ATOM     14  C11 UNL     1     158.826 157.058 166.056  0.00  0.00    +0.000 A 
ATOM     15 CL1  UNL     1     160.530 157.027 165.626  0.00  0.00    +0.000 Cl
ATOM     16  C12 UNL     1     158.459 157.764 167.179  0.00  0.00    +0.000 A 
ATOM     17  C13 UNL     1     157.130 157.810 167.547  0.00  0.00    +0.000 A 
ENDBRANCH  10  11
ENDBRANCH   7  10
ENDBRANCH   1   4
BRANCH   1  18
ATOM     18  C3  UNL     1     150.290 162.255 167.083  0.00  0.00    +0.000 C 
BRANCH  18  19
ATOM     19  C2  UNL     1     149.574 163.417 167.687  0.00  0.00    +0.000 C 
ATOM     20  C16 UNL     1     149.767 163.428 169.186  0.00  0.00    +0.000 C 
ATOM     21  C17 UNL     1     148.580 164.080 169.814  0.00  0.00    +0.000 C 
ATOM     22  O6  UNL     1     148.065 165.106 169.023  0.00  0.00    +0.000 OA
ATOM     23  C18 UNL     1     147.465 164.601 167.864  0.00  0.00    +0.000 C 
ATOM     24  C19 UNL     1     148.068 163.264 167.481  0.00  0.00    +0.000 C 
BRANCH  19  26
ATOM     25  N1  UNL     1     150.713 165.674 167.845  0.00  0.00    +0.000 N 
ATOM     26  C1  UNL     1     149.998 164.713 167.077  0.00  0.00    +0.000 C 
ATOM     27  O2  UNL     1     149.753 165.016 165.880  0.00  0.00    +0.000 OA
ATOM     28  H2  UNL     1     150.916 165.411 168.852  0.00  0.00    +0.000 HD
BRANCH  25  29
ATOM     29  O1  UNL     1     151.115 166.863 167.324  0.00  0.00    +0.000 OA
ATOM     30  H1  UNL     1     150.286 167.430 167.289  0.00  0.00    +0.000 HD
ENDBRANCH  25  29
ENDBRANCH  19  26
ENDBRANCH  18  19
ENDBRANCH   1  18
TORSDOF 7
ENDMDL
MODEL 9
REMARK VINA RESULT:      -5.9     13.474     16.431
REMARK  Name = ./3D_structures\o57_MMV690706_3D.pdb
REMARK  7 active torsions:
REMARK  status: ('A' for Active; 'I' for Inactive)
REMARK    1  A    between atoms: O1_1  and  N1_2
REMARK    2  A    between atoms: C1_3  and  C2_5
REMARK    3  A    between atoms: C2_5  and  C3_6
REMARK    4  A    between atoms: C3_6  and  S1_7
REMARK    5  A    between atoms: S1_7  and  C4_10
REMARK    6  A    between atoms: C7_13  and  O5_14
REMARK    7  A    between atoms: O5_14  and  C8_15
REMARK                            x       y       z     vdW  Elec       q    Type
REMARK                         _______ _______ _______ _____ _____    ______ ____
ROOT
ATOM      1  S1  UNL     1     157.081 148.958 162.846  0.00  0.00    +0.000 S 
ATOM      2  O3  UNL     1     157.759 147.616 162.995  0.00  0.00    +0.000 OA
ATOM      3  O4  UNL     1     156.617 149.361 164.210  0.00  0.00    +0.000 OA
ENDROOT
BRANCH   1   4
ATOM      4  C4  UNL     1     155.683 148.749 161.846  0.00  0.00    +0.000 A 
ATOM      5  C5  UNL     1     155.240 147.470 161.578  0.00  0.00    +0.000 A 
ATOM      6  C6  UNL     1     154.144 147.185 160.799  0.00  0.00    +0.000 A 
ATOM      7  C7  UNL     1     153.446 148.239 160.257  0.00  0.00    +0.000 A 
ATOM      8  C14 UNL     1     153.863 149.528 160.508  0.00  0.00    +0.000 A 
ATOM      9  C15 UNL     1     154.967 149.790 161.292  0.00  0.00    +0.000 A 
BRANCH   7  10
ATOM     10  O5  UNL     1     152.339 147.958 159.471  0.00  0.00    +0.000 OA
BRANCH  10  11
ATOM     11  C8  UNL     1     151.148 148.634 159.677  0.00  0.00    +0.000 A 
ATOM     12  C9  UNL     1     150.441 148.469 160.847  0.00  0.00    +0.000 A 
ATOM     13  C10 UNL     1     149.266 149.130 161.062  0.00  0.00    +0.000 A 
ATOM     14  C11 UNL     1     148.770 149.981 160.092  0.00  0.00    +0.000 A 
ATOM     15 CL1  UNL     1     147.263 150.861 160.303  0.00  0.00    +0.000 Cl
ATOM     16  C12 UNL     1     149.460 150.159 158.915  0.00  0.00    +0.000 A 
ATOM     17  C13 UNL     1     150.647 149.484 158.714  0.00  0.00    +0.000 A 
ENDBRANCH  10  11
ENDBRANCH   7  10
ENDBRANCH   1   4
BRANCH   1  18
ATOM     18  C3  UNL     1     158.250 150.077 162.161  0.00  0.00    +0.000 C 
BRANCH  18  19
ATOM     19  C2  UNL     1     158.761 151.045 163.176  0.00  0.00    +0.000 C 
ATOM     20  C16 UNL     1     157.619 151.849 163.753  0.00  0.00    +0.000 C 
ATOM     21  C17 UNL     1     158.141 153.182 164.176  0.00  0.00    +0.000 C 
ATOM     22  O6  UNL     1     159.446 153.106 164.660  0.00  0.00    +0.000 OA
ATOM     23  C18 UNL     1     160.352 152.818 163.631  0.00  0.00    +0.000 C 
ATOM     24  C19 UNL     1     159.670 152.073 162.502  0.00  0.00    +0.000 C 
BRANCH  19  26
ATOM     25  N1  UNL     1     159.049 150.319 165.585  0.00  0.00    +0.000 N 
ATOM     26  C1  UNL     1     159.544 150.366 164.252  0.00  0.00    +0.000 C 
ATOM     27  O2  UNL     1     160.655 149.814 164.041  0.00  0.00    +0.000 OA
ATOM     28  H2  UNL     1     158.113 150.785 165.754  0.00  0.00    +0.000 HD
BRANCH  25  29
ATOM     29  O1  UNL     1     159.733 149.709 166.589  0.00  0.00    +0.000 OA
ATOM     30  H1  UNL     1     160.704 149.851 166.371  0.00  0.00    +0.000 HD
ENDBRANCH  25  29
ENDBRANCH  19  26
ENDBRANCH  18  19
ENDBRANCH   1  18
TORSDOF 7
ENDMDL
