MODEL 1
REMARK VINA RESULT:      -5.8      0.000      0.000
REMARK  Name = ./3D_structures\o5_MMV1782103_3D.pdb
REMARK  5 active torsions:
REMARK  status: ('A' for Active; 'I' for Inactive)
REMARK    1  A    between atoms: N4_10  and  C6_11
REMARK    2  A    between atoms: C6_11  and  C7_12
REMARK    3  A    between atoms: C7_12  and  O2_13
REMARK    4  A    between atoms: O2_13  and  C8_14
REMARK    5  A    between atoms: N5_15  and  C9_16
REMARK                            x       y       z     vdW  Elec       q    Type
REMARK                         _______ _______ _______ _____ _____    ______ ____
ROOT
ATOM      1  O1  UNL     1     145.837 168.355 165.712  0.00  0.00    +0.000 OA
ATOM      2  C1  UNL     1     145.925 167.102 165.772  0.00  0.00    +0.000 A 
ATOM      3  N1  UNL     1     147.156 166.527 165.979  0.00  0.00    +0.000 N 
ATOM      4  C2  UNL     1     147.317 165.204 166.052  0.00  0.00    +0.000 A 
ATOM      5  N2  UNL     1     146.220 164.399 165.916  0.00  0.00    +0.000 NA
ATOM      6  C3  UNL     1     145.001 164.909 165.714  0.00  0.00    +0.000 A 
ATOM      7  C4  UNL     1     144.836 166.275 165.638  0.00  0.00    +0.000 A 
ATOM      8  N3  UNL     1     143.524 166.476 165.433  0.00  0.00    +0.000 NA
ATOM      9  C5  UNL     1     142.905 165.271 165.383  0.00  0.00    +0.000 A 
ATOM     10  N4  UNL     1     143.810 164.295 165.557  0.00  0.00    +0.000 N 
ATOM     11  N5  UNL     1     148.591 164.635 166.302  0.00  0.00    +0.000 N 
ATOM     12  H1  UNL     1     147.967 167.173 166.100  0.00  0.00    +0.000 HD
ATOM     13  H10 UNL     1     148.621 163.573 166.393  0.00  0.00    +0.000 HD
ENDROOT
BRANCH  11  14
ATOM     14  C9  UNL     1     149.801 165.341 166.437  0.00  0.00    +0.000 A 
ATOM     15  C10 UNL     1     150.259 165.860 167.611  0.00  0.00    +0.000 A 
ATOM     16  C11 UNL     1     151.481 166.522 167.705  0.00  0.00    +0.000 A 
ATOM     17  C12 UNL     1     152.265 166.670 166.596  0.00  0.00    +0.000 A 
ATOM     18  C13 UNL     1     151.813 166.148 165.394  0.00  0.00    +0.000 A 
ATOM     19  C14 UNL     1     150.612 165.499 165.312  0.00  0.00    +0.000 A 
ENDBRANCH  11  14
BRANCH  10  20
ATOM     20  C6  UNL     1     143.566 162.842 165.574  0.00  0.00    +0.000 C 
BRANCH  20  21
ATOM     21  C7  UNL     1     143.757 162.379 164.149  0.00  0.00    +0.000 C 
BRANCH  21  22
ATOM     22  O2  UNL     1     144.883 161.654 163.903  0.00  0.00    +0.000 OA
ATOM     23  C8  UNL     1     144.614 160.572 163.078  0.00  0.00    +0.000 C 
ENDBRANCH  21  22
ENDBRANCH  20  21
ENDBRANCH  10  20
TORSDOF 4
ENDMDL
MODEL 2
REMARK VINA RESULT:      -5.3      2.478      3.795
REMARK  Name = ./3D_structures\o5_MMV1782103_3D.pdb
REMARK  5 active torsions:
REMARK  status: ('A' for Active; 'I' for Inactive)
REMARK    1  A    between atoms: N4_10  and  C6_11
REMARK    2  A    between atoms: C6_11  and  C7_12
REMARK    3  A    between atoms: C7_12  and  O2_13
REMARK    4  A    between atoms: O2_13  and  C8_14
REMARK    5  A    between atoms: N5_15  and  C9_16
REMARK                            x       y       z     vdW  Elec       q    Type
REMARK                         _______ _______ _______ _____ _____    ______ ____
ROOT
ATOM      1  O1  UNL     1     150.057 163.980 169.192  0.00  0.00    +0.000 OA
ATOM      2  C1  UNL     1     149.471 164.546 168.234  0.00  0.00    +0.000 A 
ATOM      3  N1  UNL     1     150.206 164.953 167.146  0.00  0.00    +0.000 N 
ATOM      4  C2  UNL     1     149.644 165.560 166.098  0.00  0.00    +0.000 A 
ATOM      5  N2  UNL     1     148.295 165.782 166.111  0.00  0.00    +0.000 NA
ATOM      6  C3  UNL     1     147.536 165.406 167.146  0.00  0.00    +0.000 A 
ATOM      7  C4  UNL     1     148.117 164.780 168.228  0.00  0.00    +0.000 A 
ATOM      8  N3  UNL     1     147.116 164.530 169.088  0.00  0.00    +0.000 NA
ATOM      9  C5  UNL     1     145.960 164.989 168.551  0.00  0.00    +0.000 A 
ATOM     10  N4  UNL     1     146.209 165.532 167.349  0.00  0.00    +0.000 N 
ATOM     11  N5  UNL     1     150.417 165.938 164.971  0.00  0.00    +0.000 N 
ATOM     12  H1  UNL     1     151.229 164.747 167.161  0.00  0.00    +0.000 HD
ATOM     13  H10 UNL     1     149.880 166.373 164.159  0.00  0.00    +0.000 HD
ENDROOT
BRANCH  11  14
ATOM     14  C9  UNL     1     151.810 165.792 164.835  0.00  0.00    +0.000 A 
ATOM     15  C10 UNL     1     152.416 164.705 164.279  0.00  0.00    +0.000 A 
ATOM     16  C11 UNL     1     153.799 164.618 164.134  0.00  0.00    +0.000 A 
ATOM     17  C12 UNL     1     154.596 165.644 164.556  0.00  0.00    +0.000 A 
ATOM     18  C13 UNL     1     153.995 166.756 165.125  0.00  0.00    +0.000 A 
ATOM     19  C14 UNL     1     152.636 166.832 165.263  0.00  0.00    +0.000 A 
ENDBRANCH  11  14
BRANCH  10  20
ATOM     20  C6  UNL     1     145.237 166.147 166.428  0.00  0.00    +0.000 C 
BRANCH  20  21
ATOM     21  C7  UNL     1     144.501 164.997 165.783  0.00  0.00    +0.000 C 
BRANCH  21  22
ATOM     22  O2  UNL     1     145.245 164.183 164.984  0.00  0.00    +0.000 OA
ATOM     23  C8  UNL     1     144.509 163.088 164.556  0.00  0.00    +0.000 C 
ENDBRANCH  21  22
ENDBRANCH  20  21
ENDBRANCH  10  20
TORSDOF 4
ENDMDL
MODEL 3
REMARK VINA RESULT:      -5.2      2.998      7.492
REMARK  Name = ./3D_structures\o5_MMV1782103_3D.pdb
REMARK  5 active torsions:
REMARK  status: ('A' for Active; 'I' for Inactive)
REMARK    1  A    between atoms: N4_10  and  C6_11
REMARK    2  A    between atoms: C6_11  and  C7_12
REMARK    3  A    between atoms: C7_12  and  O2_13
REMARK    4  A    between atoms: O2_13  and  C8_14
REMARK    5  A    between atoms: N5_15  and  C9_16
REMARK                            x       y       z     vdW  Elec       q    Type
REMARK                         _______ _______ _______ _____ _____    ______ ____
ROOT
ATOM      1  O1  UNL     1     146.454 164.385 170.669  0.00  0.00    +0.000 OA
ATOM      2  C1  UNL     1     147.215 164.796 169.756  0.00  0.00    +0.000 A 
ATOM      3  N1  UNL     1     146.740 164.862 168.468  0.00  0.00    +0.000 N 
ATOM      4  C2  UNL     1     147.496 165.288 167.454  0.00  0.00    +0.000 A 
ATOM      5  N2  UNL     1     148.784 165.671 167.709  0.00  0.00    +0.000 NA
ATOM      6  C3  UNL     1     149.294 165.624 168.945  0.00  0.00    +0.000 A 
ATOM      7  C4  UNL     1     148.512 165.184 169.991  0.00  0.00    +0.000 A 
ATOM      8  N3  UNL     1     149.289 165.251 171.084  0.00  0.00    +0.000 NA
ATOM      9  C5  UNL     1     150.508 165.717 170.719  0.00  0.00    +0.000 A 
ATOM     10  N4  UNL     1     150.521 165.952 169.398  0.00  0.00    +0.000 N 
ATOM     11  N5  UNL     1     146.973 165.382 166.140  0.00  0.00    +0.000 N 
ATOM     12  H1  UNL     1     145.745 164.584 168.314  0.00  0.00    +0.000 HD
ATOM     13  H10 UNL     1     147.631 165.778 165.400  0.00  0.00    +0.000 HD
ENDROOT
BRANCH  11  14
ATOM     14  C9  UNL     1     145.680 165.002 165.734  0.00  0.00    +0.000 A 
ATOM     15  C10 UNL     1     145.349 163.753 165.302  0.00  0.00    +0.000 A 
ATOM     16  C11 UNL     1     144.047 163.411 164.943  0.00  0.00    +0.000 A 
ATOM     17  C12 UNL     1     143.051 164.344 165.016  0.00  0.00    +0.000 A 
ATOM     18  C13 UNL     1     143.372 165.619 165.452  0.00  0.00    +0.000 A 
ATOM     19  C14 UNL     1     144.654 165.945 165.804  0.00  0.00    +0.000 A 
ENDBRANCH  11  14
BRANCH  10  20
ATOM     20  C6  UNL     1     151.644 166.463 168.591  0.00  0.00    +0.000 C 
BRANCH  20  21
ATOM     21  C7  UNL     1     151.883 167.874 169.072  0.00  0.00    +0.000 C 
BRANCH  21  22
ATOM     22  O2  UNL     1     150.830 168.731 168.958  0.00  0.00    +0.000 OA
ATOM     23  C8  UNL     1     150.744 169.571 170.060  0.00  0.00    +0.000 C 
ENDBRANCH  21  22
ENDBRANCH  20  21
ENDBRANCH  10  20
TORSDOF 4
ENDMDL
MODEL 4
REMARK VINA RESULT:      -5.1      2.954      6.968
REMARK  Name = ./3D_structures\o5_MMV1782103_3D.pdb
REMARK  5 active torsions:
REMARK  status: ('A' for Active; 'I' for Inactive)
REMARK    1  A    between atoms: N4_10  and  C6_11
REMARK    2  A    between atoms: C6_11  and  C7_12
REMARK    3  A    between atoms: C7_12  and  O2_13
REMARK    4  A    between atoms: O2_13  and  C8_14
REMARK    5  A    between atoms: N5_15  and  C9_16
REMARK                            x       y       z     vdW  Elec       q    Type
REMARK                         _______ _______ _______ _____ _____    ______ ____
ROOT
ATOM      1  O1  UNL     1     146.461 164.395 170.640  0.00  0.00    +0.000 OA
ATOM      2  C1  UNL     1     147.204 164.786 169.705  0.00  0.00    +0.000 A 
ATOM      3  N1  UNL     1     146.691 164.871 168.433  0.00  0.00    +0.000 N 
ATOM      4  C2  UNL     1     147.427 165.278 167.397  0.00  0.00    +0.000 A 
ATOM      5  N2  UNL     1     148.733 165.622 167.612  0.00  0.00    +0.000 NA
ATOM      6  C3  UNL     1     149.280 165.557 168.830  0.00  0.00    +0.000 A 
ATOM      7  C4  UNL     1     148.519 165.136 169.899  0.00  0.00    +0.000 A 
ATOM      8  N3  UNL     1     149.332 165.176 170.967  0.00  0.00    +0.000 NA
ATOM      9  C5  UNL     1     150.552 165.608 170.565  0.00  0.00    +0.000 A 
ATOM     10  N4  UNL     1     150.530 165.847 169.245  0.00  0.00    +0.000 N 
ATOM     11  N5  UNL     1     146.865 165.392 166.100  0.00  0.00    +0.000 N 
ATOM     12  H1  UNL     1     145.684 164.623 168.310  0.00  0.00    +0.000 HD
ATOM     13  H10 UNL     1     147.511 165.771 165.341  0.00  0.00    +0.000 HD
ENDROOT
BRANCH  11  14
ATOM     14  C9  UNL     1     145.550 165.052 165.734  0.00  0.00    +0.000 A 
ATOM     15  C10 UNL     1     144.490 165.906 165.802  0.00  0.00    +0.000 A 
ATOM     16  C11 UNL     1     143.210 165.536 165.396  0.00  0.00    +0.000 A 
ATOM     17  C12 UNL     1     142.983 164.279 164.912  0.00  0.00    +0.000 A 
ATOM     18  C13 UNL     1     144.050 163.397 164.838  0.00  0.00    +0.000 A 
ATOM     19  C14 UNL     1     145.304 163.771 165.238  0.00  0.00    +0.000 A 
ENDBRANCH  11  14
BRANCH  10  20
ATOM     20  C6  UNL     1     151.641 166.328 168.405  0.00  0.00    +0.000 C 
BRANCH  20  21
ATOM     21  C7  UNL     1     152.320 165.087 167.876  0.00  0.00    +0.000 C 
BRANCH  21  22
ATOM     22  O2  UNL     1     151.950 164.691 166.626  0.00  0.00    +0.000 OA
ATOM     23  C8  UNL     1     151.891 165.768 165.754  0.00  0.00    +0.000 C 
ENDBRANCH  21  22
ENDBRANCH  20  21
ENDBRANCH  10  20
TORSDOF 4
ENDMDL
MODEL 5
REMARK VINA RESULT:      -5.1     11.412     13.730
REMARK  Name = ./3D_structures\o5_MMV1782103_3D.pdb
REMARK  5 active torsions:
REMARK  status: ('A' for Active; 'I' for Inactive)
REMARK    1  A    between atoms: N4_10  and  C6_11
REMARK    2  A    between atoms: C6_11  and  C7_12
REMARK    3  A    between atoms: C7_12  and  O2_13
REMARK    4  A    between atoms: O2_13  and  C8_14
REMARK    5  A    between atoms: N5_15  and  C9_16
REMARK                            x       y       z     vdW  Elec       q    Type
REMARK                         _______ _______ _______ _____ _____    ______ ____
ROOT
ATOM      1  O1  UNL     1     158.436 158.312 171.143  0.00  0.00    +0.000 OA
ATOM      2  C1  UNL     1     158.207 158.280 169.907  0.00  0.00    +0.000 A 
ATOM      3  N1  UNL     1     159.262 158.345 169.029  0.00  0.00    +0.000 N 
ATOM      4  C2  UNL     1     159.086 158.317 167.706  0.00  0.00    +0.000 A 
ATOM      5  N2  UNL     1     157.814 158.220 167.213  0.00  0.00    +0.000 NA
ATOM      6  C3  UNL     1     156.754 158.154 168.026  0.00  0.00    +0.000 A 
ATOM      7  C4  UNL     1     156.937 158.183 169.391  0.00  0.00    +0.000 A 
ATOM      8  N3  UNL     1     155.708 158.102 169.928  0.00  0.00    +0.000 NA
ATOM      9  C5  UNL     1     154.802 158.026 168.923  0.00  0.00    +0.000 A 
ATOM     10  N4  UNL     1     155.439 158.056 167.743  0.00  0.00    +0.000 N 
ATOM     11  N5  UNL     1     160.192 158.349 166.820  0.00  0.00    +0.000 N 
ATOM     12  H1  UNL     1     160.220 158.396 169.441  0.00  0.00    +0.000 HD
ATOM     13  H10 UNL     1     159.963 158.273 165.781  0.00  0.00    +0.000 HD
ENDROOT
BRANCH  11  14
ATOM     14  C9  UNL     1     161.545 158.471 167.188  0.00  0.00    +0.000 A 
ATOM     15  C10 UNL     1     162.364 157.416 167.460  0.00  0.00    +0.000 A 
ATOM     16  C11 UNL     1     163.708 157.583 167.787  0.00  0.00    +0.000 A 
ATOM     17  C12 UNL     1     164.245 158.837 167.846  0.00  0.00    +0.000 A 
ATOM     18  C13 UNL     1     163.426 159.921 167.574  0.00  0.00    +0.000 A 
ATOM     19  C14 UNL     1     162.107 159.747 167.253  0.00  0.00    +0.000 A 
ENDBRANCH  11  14
BRANCH  10  20
ATOM     20  C6  UNL     1     154.835 157.997 166.399  0.00  0.00    +0.000 C 
BRANCH  20  21
ATOM     21  C7  UNL     1     154.594 159.432 165.997  0.00  0.00    +0.000 C 
BRANCH  21  22
ATOM     22  O2  UNL     1     153.311 159.755 165.676  0.00  0.00    +0.000 OA
ATOM     23  C8  UNL     1     153.211 161.079 165.274  0.00  0.00    +0.000 C 
ENDBRANCH  21  22
ENDBRANCH  20  21
ENDBRANCH  10  20
TORSDOF 4
ENDMDL
MODEL 6
REMARK VINA RESULT:      -5.1      4.485      6.029
REMARK  Name = ./3D_structures\o5_MMV1782103_3D.pdb
REMARK  5 active torsions:
REMARK  status: ('A' for Active; 'I' for Inactive)
REMARK    1  A    between atoms: N4_10  and  C6_11
REMARK    2  A    between atoms: C6_11  and  C7_12
REMARK    3  A    between atoms: C7_12  and  O2_13
REMARK    4  A    between atoms: O2_13  and  C8_14
REMARK    5  A    between atoms: N5_15  and  C9_16
REMARK                            x       y       z     vdW  Elec       q    Type
REMARK                         _______ _______ _______ _____ _____    ______ ____
ROOT
ATOM      1  O1  UNL     1     147.242 159.166 167.208  0.00  0.00    +0.000 OA
ATOM      2  C1  UNL     1     147.599 160.358 167.388  0.00  0.00    +0.000 A 
ATOM      3  N1  UNL     1     148.927 160.686 167.257  0.00  0.00    +0.000 N 
ATOM      4  C2  UNL     1     149.371 161.932 167.436  0.00  0.00    +0.000 A 
ATOM      5  N2  UNL     1     148.472 162.911 167.759  0.00  0.00    +0.000 NA
ATOM      6  C3  UNL     1     147.170 162.643 167.899  0.00  0.00    +0.000 A 
ATOM      7  C4  UNL     1     146.713 161.357 167.714  0.00  0.00    +0.000 A 
ATOM      8  N3  UNL     1     145.386 161.405 167.919  0.00  0.00    +0.000 NA
ATOM      9  C5  UNL     1     145.042 162.681 168.220  0.00  0.00    +0.000 A 
ATOM     10  N4  UNL     1     146.138 163.455 168.209  0.00  0.00    +0.000 N 
ATOM     11  N5  UNL     1     150.741 162.253 167.260  0.00  0.00    +0.000 N 
ATOM     12  H1  UNL     1     149.581 159.918 166.987  0.00  0.00    +0.000 HD
ATOM     13  H10 UNL     1     151.000 163.281 167.375  0.00  0.00    +0.000 HD
ENDROOT
BRANCH  11  14
ATOM     14  C9  UNL     1     151.772 161.345 166.953  0.00  0.00    +0.000 A 
ATOM     15  C10 UNL     1     152.399 160.558 167.872  0.00  0.00    +0.000 A 
ATOM     16  C11 UNL     1     153.391 159.647 167.517  0.00  0.00    +0.000 A 
ATOM     17  C12 UNL     1     153.767 159.522 166.209  0.00  0.00    +0.000 A 
ATOM     18  C13 UNL     1     153.140 160.316 165.263  0.00  0.00    +0.000 A 
ATOM     19  C14 UNL     1     152.165 161.207 165.621  0.00  0.00    +0.000 A 
ENDBRANCH  11  14
BRANCH  10  20
ATOM     20  C6  UNL     1     146.214 164.902 168.481  0.00  0.00    +0.000 C 
BRANCH  20  21
ATOM     21  C7  UNL     1     146.208 165.035 169.985  0.00  0.00    +0.000 C 
BRANCH  21  22
ATOM     22  O2  UNL     1     147.367 164.704 170.619  0.00  0.00    +0.000 OA
ATOM     23  C8  UNL     1     148.409 165.533 170.227  0.00  0.00    +0.000 C 
ENDBRANCH  21  22
ENDBRANCH  20  21
ENDBRANCH  10  20
TORSDOF 4
ENDMDL
MODEL 7
REMARK VINA RESULT:      -5.0     12.223     13.859
REMARK  Name = ./3D_structures\o5_MMV1782103_3D.pdb
REMARK  5 active torsions:
REMARK  status: ('A' for Active; 'I' for Inactive)
REMARK    1  A    between atoms: N4_10  and  C6_11
REMARK    2  A    between atoms: C6_11  and  C7_12
REMARK    3  A    between atoms: C7_12  and  O2_13
REMARK    4  A    between atoms: O2_13  and  C8_14
REMARK    5  A    between atoms: N5_15  and  C9_16
REMARK                            x       y       z     vdW  Elec       q    Type
REMARK                         _______ _______ _______ _____ _____    ______ ____
ROOT
ATOM      1  O1  UNL     1     154.307 157.114 167.893  0.00  0.00    +0.000 OA
ATOM      2  C1  UNL     1     155.540 157.362 167.884  0.00  0.00    +0.000 A 
ATOM      3  N1  UNL     1     156.086 158.077 168.923  0.00  0.00    +0.000 N 
ATOM      4  C2  UNL     1     157.386 158.375 168.972  0.00  0.00    +0.000 A 
ATOM      5  N2  UNL     1     158.198 157.951 167.956  0.00  0.00    +0.000 NA
ATOM      6  C3  UNL     1     157.715 157.252 166.923  0.00  0.00    +0.000 A 
ATOM      7  C4  UNL     1     156.372 156.947 166.873  0.00  0.00    +0.000 A 
ATOM      8  N3  UNL     1     156.196 156.252 165.737  0.00  0.00    +0.000 NA
ATOM      9  C5  UNL     1     157.393 156.136 165.112  0.00  0.00    +0.000 A 
ATOM     10  N4  UNL     1     158.339 156.751 165.838  0.00  0.00    +0.000 N 
ATOM     11  N5  UNL     1     157.934 159.083 170.072  0.00  0.00    +0.000 N 
ATOM     12  H1  UNL     1     155.441 158.365 169.692  0.00  0.00    +0.000 HD
ATOM     13  H10 UNL     1     158.989 159.235 170.054  0.00  0.00    +0.000 HD
ENDROOT
BRANCH  11  14
ATOM     14  C9  UNL     1     157.214 159.596 171.168  0.00  0.00    +0.000 A 
ATOM     15  C10 UNL     1     156.501 158.831 172.042  0.00  0.00    +0.000 A 
ATOM     16  C11 UNL     1     155.832 159.378 173.134  0.00  0.00    +0.000 A 
ATOM     17  C12 UNL     1     155.876 160.725 173.356  0.00  0.00    +0.000 A 
ATOM     18  C13 UNL     1     156.595 161.517 172.476  0.00  0.00    +0.000 A 
ATOM     19  C14 UNL     1     157.250 160.970 171.406  0.00  0.00    +0.000 A 
ENDBRANCH  11  14
BRANCH  10  20
ATOM     20  C6  UNL     1     159.775 156.864 165.524  0.00  0.00    +0.000 C 
BRANCH  20  21
ATOM     21  C7  UNL     1     159.892 158.023 164.563  0.00  0.00    +0.000 C 
BRANCH  21  22
ATOM     22  O2  UNL     1     160.667 157.812 163.464  0.00  0.00    +0.000 OA
ATOM     23  C8  UNL     1     160.855 156.456 163.233  0.00  0.00    +0.000 C 
ENDBRANCH  21  22
ENDBRANCH  20  21
ENDBRANCH  10  20
TORSDOF 4
ENDMDL
MODEL 8
REMARK VINA RESULT:      -5.0      2.591      3.100
REMARK  Name = ./3D_structures\o5_MMV1782103_3D.pdb
REMARK  5 active torsions:
REMARK  status: ('A' for Active; 'I' for Inactive)
REMARK    1  A    between atoms: N4_10  and  C6_11
REMARK    2  A    between atoms: C6_11  and  C7_12
REMARK    3  A    between atoms: C7_12  and  O2_13
REMARK    4  A    between atoms: O2_13  and  C8_14
REMARK    5  A    between atoms: N5_15  and  C9_16
REMARK                            x       y       z     vdW  Elec       q    Type
REMARK                         _______ _______ _______ _____ _____    ______ ____
ROOT
ATOM      1  O1  UNL     1     148.140 166.691 166.320  0.00  0.00    +0.000 OA
ATOM      2  C1  UNL     1     147.371 165.703 166.428  0.00  0.00    +0.000 A 
ATOM      3  N1  UNL     1     147.877 164.506 166.876  0.00  0.00    +0.000 N 
ATOM      4  C2  UNL     1     147.115 163.420 167.012  0.00  0.00    +0.000 A 
ATOM      5  N2  UNL     1     145.786 163.504 166.696  0.00  0.00    +0.000 NA
ATOM      6  C3  UNL     1     145.246 164.645 166.256  0.00  0.00    +0.000 A 
ATOM      7  C4  UNL     1     146.034 165.766 166.115  0.00  0.00    +0.000 A 
ATOM      8  N3  UNL     1     145.220 166.733 165.663  0.00  0.00    +0.000 NA
ATOM      9  C5  UNL     1     143.972 166.221 165.531  0.00  0.00    +0.000 A 
ATOM     10  N4  UNL     1     143.977 164.930 165.896  0.00  0.00    +0.000 N 
ATOM     11  N5  UNL     1     147.652 162.206 167.511  0.00  0.00    +0.000 N 
ATOM     12  H1  UNL     1     148.890 164.485 167.130  0.00  0.00    +0.000 HD
ATOM     13  H10 UNL     1     146.961 161.403 167.633  0.00  0.00    +0.000 HD
ENDROOT
BRANCH  11  14
ATOM     14  C9  UNL     1     148.998 161.974 167.850  0.00  0.00    +0.000 A 
ATOM     15  C10 UNL     1     149.915 161.416 167.011  0.00  0.00    +0.000 A 
ATOM     16  C11 UNL     1     151.247 161.237 167.378  0.00  0.00    +0.000 A 
ATOM     17  C12 UNL     1     151.671 161.624 168.617  0.00  0.00    +0.000 A 
ATOM     18  C13 UNL     1     150.751 162.192 169.483  0.00  0.00    +0.000 A 
ATOM     19  C14 UNL     1     149.445 162.365 169.113  0.00  0.00    +0.000 A 
ENDBRANCH  11  14
BRANCH  10  20
ATOM     20  C6  UNL     1     142.835 163.999 165.905  0.00  0.00    +0.000 C 
BRANCH  20  21
ATOM     21  C7  UNL     1     142.760 163.431 164.508  0.00  0.00    +0.000 C 
BRANCH  21  22
ATOM     22  O2  UNL     1     143.474 162.292 164.287  0.00  0.00    +0.000 OA
ATOM     23  C8  UNL     1     144.273 162.410 163.159  0.00  0.00    +0.000 C 
ENDBRANCH  21  22
ENDBRANCH  20  21
ENDBRANCH  10  20
TORSDOF 4
ENDMDL
MODEL 9
REMARK VINA RESULT:      -5.0      3.328      6.789
REMARK  Name = ./3D_structures\o5_MMV1782103_3D.pdb
REMARK  5 active torsions:
REMARK  status: ('A' for Active; 'I' for Inactive)
REMARK    1  A    between atoms: N4_10  and  C6_11
REMARK    2  A    between atoms: C6_11  and  C7_12
REMARK    3  A    between atoms: C7_12  and  O2_13
REMARK    4  A    between atoms: O2_13  and  C8_14
REMARK    5  A    between atoms: N5_15  and  C9_16
REMARK                            x       y       z     vdW  Elec       q    Type
REMARK                         _______ _______ _______ _____ _____    ______ ____
ROOT
ATOM      1  O1  UNL     1     147.894 165.012 170.675  0.00  0.00    +0.000 OA
ATOM      2  C1  UNL     1     148.527 164.784 169.613  0.00  0.00    +0.000 A 
ATOM      3  N1  UNL     1     147.901 164.978 168.406  0.00  0.00    +0.000 N 
ATOM      4  C2  UNL     1     148.516 164.754 167.243  0.00  0.00    +0.000 A 
ATOM      5  N2  UNL     1     149.813 164.318 167.258  0.00  0.00    +0.000 NA
ATOM      6  C3  UNL     1     150.466 164.113 168.406  0.00  0.00    +0.000 A 
ATOM      7  C4  UNL     1     149.829 164.344 169.606  0.00  0.00    +0.000 A 
ATOM      8  N3  UNL     1     150.728 164.055 170.561  0.00  0.00    +0.000 NA
ATOM      9  C5  UNL     1     151.878 163.657 169.964  0.00  0.00    +0.000 A 
ATOM     10  N4  UNL     1     151.727 163.691 168.632  0.00  0.00    +0.000 N 
ATOM     11  N5  UNL     1     147.861 164.996 166.009  0.00  0.00    +0.000 N 
ATOM     12  H1  UNL     1     146.919 165.334 168.432  0.00  0.00    +0.000 HD
ATOM     13  H10 UNL     1     148.443 164.837 165.130  0.00  0.00    +0.000 HD
ENDROOT
BRANCH  11  14
ATOM     14  C9  UNL     1     146.529 165.421 165.848  0.00  0.00    +0.000 A 
ATOM     15  C10 UNL     1     145.455 164.582 165.820  0.00  0.00    +0.000 A 
ATOM     16  C11 UNL     1     144.149 165.050 165.693  0.00  0.00    +0.000 A 
ATOM     17  C12 UNL     1     143.911 166.391 165.591  0.00  0.00    +0.000 A 
ATOM     18  C13 UNL     1     144.992 167.258 165.617  0.00  0.00    +0.000 A 
ATOM     19  C14 UNL     1     146.272 166.788 165.743  0.00  0.00    +0.000 A 
ENDBRANCH  11  14
BRANCH  10  20
ATOM     20  C6  UNL     1     152.728 163.339 167.609  0.00  0.00    +0.000 C 
BRANCH  20  21
ATOM     21  C7  UNL     1     152.728 161.831 167.539  0.00  0.00    +0.000 C 
BRANCH  21  22
ATOM     22  O2  UNL     1     151.631 161.260 166.968  0.00  0.00    +0.000 OA
ATOM     23  C8  UNL     1     151.678 161.352 165.585  0.00  0.00    +0.000 C 
ENDBRANCH  21  22
ENDBRANCH  20  21
ENDBRANCH  10  20
TORSDOF 4
ENDMDL
