MODEL 1
REMARK VINA RESULT:      -6.9      0.000      0.000
REMARK  Name = ./3D_structures\o60_MMV1782214_3D.pdb
REMARK  17 active torsions:
REMARK  status: ('A' for Active; 'I' for Inactive)
REMARK    1  A    between atoms: C1_1  and  N1_2
REMARK    2  A    between atoms: N1_2  and  C2_3
REMARK    3  A    between atoms: N1_2  and  S1_37
REMARK    4  A    between atoms: C2_3  and  C3_4
REMARK    5  A    between atoms: C3_4  and  C4_5
REMARK    6  A    between atoms: C3_4  and  C5_6
REMARK    7  A    between atoms: C3_4  and  C23_31
REMARK    8  A    between atoms: C5_6  and  C6_7
REMARK    9  A    between atoms: C6_7  and  N2_8
REMARK   10  A    between atoms: C9_11  and  N3_14
REMARK   11  A    between atoms: N3_14  and  C12_15
REMARK   12  A    between atoms: C12_15  and  C13_16
REMARK   13  A    between atoms: C15_18  and  O2_20
REMARK   14  A    between atoms: O2_20  and  C16_21
REMARK   15  A    between atoms: C16_21  and  C17_22
REMARK   16  A    between atoms: C20_25  and  N4_28
REMARK   17  A    between atoms: S1_37  and  C29_40
REMARK                            x       y       z     vdW  Elec       q    Type
REMARK                         _______ _______ _______ _____ _____    ______ ____
ROOT
ATOM      1  N2  UNL     1     150.694 163.256 169.596  0.00  0.00    +0.000 NA
ATOM      2  C7  UNL     1     149.773 164.170 170.028  0.00  0.00    +0.000 C 
ATOM      3  C8  UNL     1     148.515 164.280 169.312  0.00  0.00    +0.000 C 
ATOM      4  C9  UNL     1     148.624 163.924 167.748  0.00  0.00    +0.000 C 
ATOM      5  C10 UNL     1     149.591 162.895 167.539  0.00  0.00    +0.000 C 
ATOM      6  C11 UNL     1     150.916 163.115 168.167  0.00  0.00    +0.000 C 
ENDROOT
BRANCH   4   7
ATOM      7  N3  UNL     1     148.680 165.134 167.077  0.00  0.00    +0.000 N 
ATOM      8  C15 UNL     1     147.569 165.595 166.249  0.00  0.00    +0.000 C 
ATOM      9  O1  UNL     1     147.655 166.902 166.255  0.00  0.00    +0.000 OA
BRANCH   7  10
ATOM     10  C12 UNL     1     149.860 165.935 166.773  0.00  0.00    +0.000 C 
BRANCH  10  11
ATOM     11  C13 UNL     1     150.547 165.544 165.500  0.00  0.00    +0.000 C 
ATOM     12  C14 UNL     1     151.448 165.547 164.660  0.00  0.00    +0.000 C 
ENDBRANCH  10  11
ENDBRANCH   7  10
BRANCH   8  13
ATOM     13  O2  UNL     1     146.690 164.806 165.684  0.00  0.00    +0.000 OA
BRANCH  13  14
ATOM     14  C16 UNL     1     145.261 164.958 165.699  0.00  0.00    +0.000 C 
BRANCH  14  15
ATOM     15  C17 UNL     1     144.856 163.710 166.522  0.00  0.00    +0.000 A 
ATOM     16  C18 UNL     1     144.915 163.736 167.882  0.00  0.00    +0.000 A 
ATOM     17  C19 UNL     1     145.065 162.539 168.647  0.00  0.00    +0.000 A 
ATOM     18  C20 UNL     1     145.072 161.377 167.889  0.00  0.00    +0.000 A 
ATOM     19  C21 UNL     1     144.972 161.397 166.544  0.00  0.00    +0.000 A 
ATOM     20  C22 UNL     1     144.871 162.555 165.802  0.00  0.00    +0.000 A 
BRANCH  18  21
ATOM     21  N4  UNL     1     145.580 160.176 168.544  0.00  0.00    +0.000 N 
ATOM     22  O3  UNL     1     145.095 159.790 169.717  0.00  0.00    +0.000 OA
ATOM     23  O4  UNL     1     146.423 159.433 167.951  0.00  0.00    +0.000 OA
ENDBRANCH  18  21
ENDBRANCH  14  15
ENDBRANCH  13  14
ENDBRANCH   8  13
ENDBRANCH   4   7
BRANCH   1  24
ATOM     24  C6  UNL     1     150.935 162.033 170.219  0.00  0.00    +0.000 C 
BRANCH  24  25
ATOM     25  C5  UNL     1     152.271 161.453 170.065  0.00  0.00    +0.000 C 
BRANCH  25  26
ATOM     26  C3  UNL     1     152.288 159.974 170.351  0.00  0.00    +0.000 C 
ATOM     27  C4  UNL     1     150.988 159.222 170.220  0.00  0.00    +0.000 C 
BRANCH  26  28
ATOM     28  C23 UNL     1     153.050 159.215 169.336  0.00  0.00    +0.000 A 
ATOM     29  C24 UNL     1     153.277 159.619 168.099  0.00  0.00    +0.000 A 
ATOM     30  C25 UNL     1     154.002 159.087 167.137  0.00  0.00    +0.000 A 
ATOM     31  C26 UNL     1     154.710 157.833 167.351  0.00  0.00    +0.000 A 
ATOM     32  C27 UNL     1     154.446 157.296 168.657  0.00  0.00    +0.000 A 
ATOM     33  C28 UNL     1     153.664 157.939 169.592  0.00  0.00    +0.000 A 
ENDBRANCH  26  28
BRANCH  26  34
ATOM     34  C2  UNL     1     152.846 159.813 171.721  0.00  0.00    +0.000 C 
BRANCH  34  36
ATOM     35  C1  UNL     1     152.818 160.947 173.715  0.00  0.00    +0.000 C 
ATOM     36  N1  UNL     1     153.535 160.845 172.395  0.00  0.00    +0.000 NA
BRANCH  36  37
ATOM     37  S1  UNL     1     155.179 160.663 172.811  0.00  0.00    +0.000 S 
ATOM     38  O5  UNL     1     155.821 161.902 173.223  0.00  0.00    +0.000 OA
ATOM     39  O6  UNL     1     155.280 159.559 173.819  0.00  0.00    +0.000 OA
BRANCH  37  40
ATOM     40  C29 UNL     1     156.053 160.039 171.367  0.00  0.00    +0.000 A 
ATOM     41  C30 UNL     1     156.163 160.750 170.218  0.00  0.00    +0.000 A 
ATOM     42  C31 UNL     1     157.123 160.277 169.266  0.00  0.00    +0.000 A 
ATOM     43  C32 UNL     1     157.815 159.133 169.552  0.00  0.00    +0.000 A 
ATOM     44  C33 UNL     1     157.751 158.409 170.641  0.00  0.00    +0.000 A 
ATOM     45  C34 UNL     1     156.799 158.961 171.585  0.00  0.00    +0.000 A 
ENDBRANCH  37  40
ENDBRANCH  36  37
ENDBRANCH  34  36
ENDBRANCH  26  34
ENDBRANCH  25  26
ENDBRANCH  24  25
ENDBRANCH   1  24
TORSDOF 15
ENDMDL
MODEL 2
REMARK VINA RESULT:      -6.9      2.877      4.754
REMARK  Name = ./3D_structures\o60_MMV1782214_3D.pdb
REMARK  17 active torsions:
REMARK  status: ('A' for Active; 'I' for Inactive)
REMARK    1  A    between atoms: C1_1  and  N1_2
REMARK    2  A    between atoms: N1_2  and  C2_3
REMARK    3  A    between atoms: N1_2  and  S1_37
REMARK    4  A    between atoms: C2_3  and  C3_4
REMARK    5  A    between atoms: C3_4  and  C4_5
REMARK    6  A    between atoms: C3_4  and  C5_6
REMARK    7  A    between atoms: C3_4  and  C23_31
REMARK    8  A    between atoms: C5_6  and  C6_7
REMARK    9  A    between atoms: C6_7  and  N2_8
REMARK   10  A    between atoms: C9_11  and  N3_14
REMARK   11  A    between atoms: N3_14  and  C12_15
REMARK   12  A    between atoms: C12_15  and  C13_16
REMARK   13  A    between atoms: C15_18  and  O2_20
REMARK   14  A    between atoms: O2_20  and  C16_21
REMARK   15  A    between atoms: C16_21  and  C17_22
REMARK   16  A    between atoms: C20_25  and  N4_28
REMARK   17  A    between atoms: S1_37  and  C29_40
REMARK                            x       y       z     vdW  Elec       q    Type
REMARK                         _______ _______ _______ _____ _____    ______ ____
ROOT
ATOM      1  N2  UNL     1     150.147 161.433 169.463  0.00  0.00    +0.000 NA
ATOM      2  C7  UNL     1     149.478 161.601 168.281  0.00  0.00    +0.000 C 
ATOM      3  C8  UNL     1     150.055 162.474 167.275  0.00  0.00    +0.000 C 
ATOM      4  C9  UNL     1     150.929 163.678 167.884  0.00  0.00    +0.000 C 
ATOM      5  C10 UNL     1     151.597 163.256 169.072  0.00  0.00    +0.000 C 
ATOM      6  C11 UNL     1     150.747 162.596 170.093  0.00  0.00    +0.000 C 
ENDROOT
BRANCH   4   7
ATOM      7  N3  UNL     1     150.118 164.801 167.854  0.00  0.00    +0.000 N 
ATOM      8  C15 UNL     1     149.594 165.325 166.596  0.00  0.00    +0.000 C 
ATOM      9  O1  UNL     1     148.484 165.942 166.918  0.00  0.00    +0.000 OA
BRANCH   7  10
ATOM     10  C12 UNL     1     149.946 165.807 168.895  0.00  0.00    +0.000 C 
BRANCH  10  11
ATOM     11  C13 UNL     1     151.025 166.847 168.917  0.00  0.00    +0.000 C 
ATOM     12  C14 UNL     1     151.967 167.501 168.468  0.00  0.00    +0.000 C 
ENDBRANCH  10  11
ENDBRANCH   7  10
BRANCH   8  13
ATOM     13  O2  UNL     1     150.154 165.143 165.427  0.00  0.00    +0.000 OA
BRANCH  13  14
ATOM     14  C16 UNL     1     151.081 166.022 164.769  0.00  0.00    +0.000 C 
BRANCH  14  15
ATOM     15  C17 UNL     1     152.348 165.133 164.756  0.00  0.00    +0.000 A 
ATOM     16  C18 UNL     1     152.295 163.869 164.253  0.00  0.00    +0.000 A 
ATOM     17  C19 UNL     1     153.219 162.860 164.665  0.00  0.00    +0.000 A 
ATOM     18  C20 UNL     1     154.190 163.306 165.549  0.00  0.00    +0.000 A 
ATOM     19  C21 UNL     1     154.227 164.580 165.992  0.00  0.00    +0.000 A 
ATOM     20  C22 UNL     1     153.310 165.543 165.627  0.00  0.00    +0.000 A 
BRANCH  18  21
ATOM     21  N4  UNL     1     154.923 162.280 166.284  0.00  0.00    +0.000 N 
ATOM     22  O3  UNL     1     155.901 161.599 165.699  0.00  0.00    +0.000 OA
ATOM     23  O4  UNL     1     154.699 162.096 167.520  0.00  0.00    +0.000 OA
ENDBRANCH  18  21
ENDBRANCH  14  15
ENDBRANCH  13  14
ENDBRANCH   8  13
ENDBRANCH   4   7
BRANCH   1  24
ATOM     24  C6  UNL     1     150.893 160.302 169.786  0.00  0.00    +0.000 C 
BRANCH  24  25
ATOM     25  C5  UNL     1     152.017 159.966 168.908  0.00  0.00    +0.000 C 
BRANCH  25  26
ATOM     26  C3  UNL     1     152.912 158.911 169.503  0.00  0.00    +0.000 C 
ATOM     27  C4  UNL     1     152.281 157.598 169.891  0.00  0.00    +0.000 C 
BRANCH  26  28
ATOM     28  C23 UNL     1     153.877 158.374 168.520  0.00  0.00    +0.000 A 
ATOM     29  C24 UNL     1     153.964 158.753 167.257  0.00  0.00    +0.000 A 
ATOM     30  C25 UNL     1     154.822 158.421 166.315  0.00  0.00    +0.000 A 
ATOM     31  C26 UNL     1     155.893 157.475 166.589  0.00  0.00    +0.000 A 
ATOM     32  C27 UNL     1     155.814 156.964 167.929  0.00  0.00    +0.000 A 
ATOM     33  C28 UNL     1     154.867 157.379 168.838  0.00  0.00    +0.000 A 
ENDBRANCH  26  28
BRANCH  26  34
ATOM     34  C2  UNL     1     153.580 159.534 170.677  0.00  0.00    +0.000 C 
BRANCH  34  36
ATOM     35  C1  UNL     1     154.256 161.673 171.156  0.00  0.00    +0.000 C 
ATOM     36  N1  UNL     1     154.713 160.368 170.561  0.00  0.00    +0.000 NA
BRANCH  36  37
ATOM     37  S1  UNL     1     156.153 159.996 171.396  0.00  0.00    +0.000 S 
ATOM     38  O5  UNL     1     156.621 161.064 172.266  0.00  0.00    +0.000 OA
ATOM     39  O6  UNL     1     155.956 158.684 172.093  0.00  0.00    +0.000 OA
BRANCH  37  40
ATOM     40  C29 UNL     1     157.436 159.671 170.177  0.00  0.00    +0.000 A 
ATOM     41  C30 UNL     1     158.274 158.609 170.266  0.00  0.00    +0.000 A 
ATOM     42  C31 UNL     1     159.037 158.300 169.094  0.00  0.00    +0.000 A 
ATOM     43  C32 UNL     1     158.911 159.112 168.002  0.00  0.00    +0.000 A 
ATOM     44  C33 UNL     1     158.121 160.147 167.859  0.00  0.00    +0.000 A 
ATOM     45  C34 UNL     1     157.341 160.381 169.058  0.00  0.00    +0.000 A 
ENDBRANCH  37  40
ENDBRANCH  36  37
ENDBRANCH  34  36
ENDBRANCH  26  34
ENDBRANCH  25  26
ENDBRANCH  24  25
ENDBRANCH   1  24
TORSDOF 15
ENDMDL
MODEL 3
REMARK VINA RESULT:      -6.8      2.422      3.823
REMARK  Name = ./3D_structures\o60_MMV1782214_3D.pdb
REMARK  17 active torsions:
REMARK  status: ('A' for Active; 'I' for Inactive)
REMARK    1  A    between atoms: C1_1  and  N1_2
REMARK    2  A    between atoms: N1_2  and  C2_3
REMARK    3  A    between atoms: N1_2  and  S1_37
REMARK    4  A    between atoms: C2_3  and  C3_4
REMARK    5  A    between atoms: C3_4  and  C4_5
REMARK    6  A    between atoms: C3_4  and  C5_6
REMARK    7  A    between atoms: C3_4  and  C23_31
REMARK    8  A    between atoms: C5_6  and  C6_7
REMARK    9  A    between atoms: C6_7  and  N2_8
REMARK   10  A    between atoms: C9_11  and  N3_14
REMARK   11  A    between atoms: N3_14  and  C12_15
REMARK   12  A    between atoms: C12_15  and  C13_16
REMARK   13  A    between atoms: C15_18  and  O2_20
REMARK   14  A    between atoms: O2_20  and  C16_21
REMARK   15  A    between atoms: C16_21  and  C17_22
REMARK   16  A    between atoms: C20_25  and  N4_28
REMARK   17  A    between atoms: S1_37  and  C29_40
REMARK                            x       y       z     vdW  Elec       q    Type
REMARK                         _______ _______ _______ _____ _____    ______ ____
ROOT
ATOM      1  N2  UNL     1     153.629 163.812 165.752  0.00  0.00    +0.000 NA
ATOM      2  C7  UNL     1     153.815 164.468 166.939  0.00  0.00    +0.000 C 
ATOM      3  C8  UNL     1     152.793 164.353 167.963  0.00  0.00    +0.000 C 
ATOM      4  C9  UNL     1     151.309 164.150 167.380  0.00  0.00    +0.000 C 
ATOM      5  C10 UNL     1     151.348 163.376 166.182  0.00  0.00    +0.000 C 
ATOM      6  C11 UNL     1     152.308 163.833 165.148  0.00  0.00    +0.000 C 
ENDROOT
BRANCH   4   7
ATOM      7  N3  UNL     1     150.695 165.391 167.437  0.00  0.00    +0.000 N 
ATOM      8  C15 UNL     1     150.305 165.986 168.711  0.00  0.00    +0.000 C 
ATOM      9  O1  UNL     1     150.321 167.280 168.505  0.00  0.00    +0.000 OA
BRANCH   7  10
ATOM     10  C12 UNL     1     150.037 166.112 166.355  0.00  0.00    +0.000 C 
BRANCH  10  11
ATOM     11  C13 UNL     1     148.557 165.888 166.289  0.00  0.00    +0.000 C 
ATOM     12  C14 UNL     1     147.378 166.199 166.116  0.00  0.00    +0.000 C 
ENDBRANCH  10  11
ENDBRANCH   7  10
BRANCH   8  13
ATOM     13  O2  UNL     1     150.044 165.305 169.798  0.00  0.00    +0.000 OA
BRANCH  13  14
ATOM     14  C16 UNL     1     148.929 165.491 170.685  0.00  0.00    +0.000 C 
BRANCH  14  15
ATOM     15  C17 UNL     1     147.905 164.516 170.054  0.00  0.00    +0.000 A 
ATOM     16  C18 UNL     1     148.333 163.408 169.387  0.00  0.00    +0.000 A 
ATOM     17  C19 UNL     1     147.532 162.785 168.381  0.00  0.00    +0.000 A 
ATOM     18  C20 UNL     1     146.282 163.364 168.211  0.00  0.00    +0.000 A 
ATOM     19  C21 UNL     1     145.886 164.438 168.923  0.00  0.00    +0.000 A 
ATOM     20  C22 UNL     1     146.676 165.066 169.863  0.00  0.00    +0.000 A 
BRANCH  18  21
ATOM     21  N4  UNL     1     145.571 163.027 166.981  0.00  0.00    +0.000 N 
ATOM     22  O3  UNL     1     145.854 161.911 166.322  0.00  0.00    +0.000 OA
ATOM     23  O4  UNL     1     144.606 163.750 166.584  0.00  0.00    +0.000 OA
ENDBRANCH  18  21
ENDBRANCH  14  15
ENDBRANCH  13  14
ENDBRANCH   8  13
ENDBRANCH   4   7
BRANCH   1  24
ATOM     24  C6  UNL     1     154.274 162.628 165.403  0.00  0.00    +0.000 C 
BRANCH  24  25
ATOM     25  C5  UNL     1     154.677 161.737 166.493  0.00  0.00    +0.000 C 
BRANCH  25  26
ATOM     26  C3  UNL     1     154.034 160.378 166.388  0.00  0.00    +0.000 C 
ATOM     27  C4  UNL     1     153.035 160.162 165.281  0.00  0.00    +0.000 C 
BRANCH  26  28
ATOM     28  C23 UNL     1     154.996 159.331 165.984  0.00  0.00    +0.000 A 
ATOM     29  C24 UNL     1     156.088 159.539 165.269  0.00  0.00    +0.000 A 
ATOM     30  C25 UNL     1     157.058 158.721 164.918  0.00  0.00    +0.000 A 
ATOM     31  C26 UNL     1     157.026 157.322 165.317  0.00  0.00    +0.000 A 
ATOM     32  C27 UNL     1     155.823 157.007 166.037  0.00  0.00    +0.000 A 
ATOM     33  C28 UNL     1     154.865 157.946 166.348  0.00  0.00    +0.000 A 
ENDBRANCH  26  28
BRANCH  26  34
ATOM     34  C2  UNL     1     153.413 160.101 167.711  0.00  0.00    +0.000 C 
BRANCH  34  36
ATOM     35  C1  UNL     1     152.778 161.100 169.677  0.00  0.00    +0.000 C 
ATOM     36  N1  UNL     1     153.965 160.553 168.929  0.00  0.00    +0.000 NA
BRANCH  36  37
ATOM     37  S1  UNL     1     154.689 159.455 170.014  0.00  0.00    +0.000 S 
ATOM     38  O5  UNL     1     154.686 159.907 171.398  0.00  0.00    +0.000 OA
ATOM     39  O6  UNL     1     154.050 158.116 169.809  0.00  0.00    +0.000 OA
BRANCH  37  40
ATOM     40  C29 UNL     1     156.401 159.221 169.512  0.00  0.00    +0.000 A 
ATOM     41  C30 UNL     1     156.988 158.000 169.471  0.00  0.00    +0.000 A 
ATOM     42  C31 UNL     1     158.238 157.917 168.777  0.00  0.00    +0.000 A 
ATOM     43  C32 UNL     1     158.771 159.063 168.257  0.00  0.00    +0.000 A 
ATOM     44  C33 UNL     1     158.252 160.265 168.265  0.00  0.00    +0.000 A 
ATOM     45  C34 UNL     1     156.967 160.277 168.938  0.00  0.00    +0.000 A 
ENDBRANCH  37  40
ENDBRANCH  36  37
ENDBRANCH  34  36
ENDBRANCH  26  34
ENDBRANCH  25  26
ENDBRANCH  24  25
ENDBRANCH   1  24
TORSDOF 15
ENDMDL
MODEL 4
REMARK VINA RESULT:      -6.8      3.018      5.438
REMARK  Name = ./3D_structures\o60_MMV1782214_3D.pdb
REMARK  17 active torsions:
REMARK  status: ('A' for Active; 'I' for Inactive)
REMARK    1  A    between atoms: C1_1  and  N1_2
REMARK    2  A    between atoms: N1_2  and  C2_3
REMARK    3  A    between atoms: N1_2  and  S1_37
REMARK    4  A    between atoms: C2_3  and  C3_4
REMARK    5  A    between atoms: C3_4  and  C4_5
REMARK    6  A    between atoms: C3_4  and  C5_6
REMARK    7  A    between atoms: C3_4  and  C23_31
REMARK    8  A    between atoms: C5_6  and  C6_7
REMARK    9  A    between atoms: C6_7  and  N2_8
REMARK   10  A    between atoms: C9_11  and  N3_14
REMARK   11  A    between atoms: N3_14  and  C12_15
REMARK   12  A    between atoms: C12_15  and  C13_16
REMARK   13  A    between atoms: C15_18  and  O2_20
REMARK   14  A    between atoms: O2_20  and  C16_21
REMARK   15  A    between atoms: C16_21  and  C17_22
REMARK   16  A    between atoms: C20_25  and  N4_28
REMARK   17  A    between atoms: S1_37  and  C29_40
REMARK                            x       y       z     vdW  Elec       q    Type
REMARK                         _______ _______ _______ _____ _____    ______ ____
ROOT
ATOM      1  N2  UNL     1     150.258 161.532 169.851  0.00  0.00    +0.000 NA
ATOM      2  C7  UNL     1     149.543 161.440 168.689  0.00  0.00    +0.000 C 
ATOM      3  C8  UNL     1     149.993 162.196 167.534  0.00  0.00    +0.000 C 
ATOM      4  C9  UNL     1     150.748 163.565 167.909  0.00  0.00    +0.000 C 
ATOM      5  C10 UNL     1     151.491 163.409 169.117  0.00  0.00    +0.000 C 
ATOM      6  C11 UNL     1     150.746 162.837 170.265  0.00  0.00    +0.000 C 
ENDROOT
BRANCH   4   7
ATOM      7  N3  UNL     1     149.820 164.580 167.740  0.00  0.00    +0.000 N 
ATOM      8  C15 UNL     1     149.494 165.098 166.415  0.00  0.00    +0.000 C 
ATOM      9  O1  UNL     1     148.271 165.556 166.517  0.00  0.00    +0.000 OA
BRANCH   7  10
ATOM     10  C12 UNL     1     149.313 165.503 168.748  0.00  0.00    +0.000 C 
BRANCH  10  11
ATOM     11  C13 UNL     1     148.186 164.949 169.567  0.00  0.00    +0.000 C 
ATOM     12  C14 UNL     1     147.285 164.160 169.853  0.00  0.00    +0.000 C 
ENDBRANCH  10  11
ENDBRANCH   7  10
BRANCH   8  13
ATOM     13  O2  UNL     1     150.296 165.045 165.382  0.00  0.00    +0.000 OA
BRANCH  13  14
ATOM     14  C16 UNL     1     151.351 165.967 165.063  0.00  0.00    +0.000 C 
BRANCH  14  15
ATOM     15  C17 UNL     1     152.536 164.985 164.891  0.00  0.00    +0.000 A 
ATOM     16  C18 UNL     1     153.793 165.354 165.262  0.00  0.00    +0.000 A 
ATOM     17  C19 UNL     1     154.951 164.753 164.681  0.00  0.00    +0.000 A 
ATOM     18  C20 UNL     1     154.672 163.736 163.779  0.00  0.00    +0.000 A 
ATOM     19  C21 UNL     1     153.409 163.377 163.471  0.00  0.00    +0.000 A 
ATOM     20  C22 UNL     1     152.290 163.987 163.999  0.00  0.00    +0.000 A 
BRANCH  18  21
ATOM     21  N4  UNL     1     155.759 163.337 162.891  0.00  0.00    +0.000 N 
ATOM     22  O3  UNL     1     156.670 162.458 163.290  0.00  0.00    +0.000 OA
ATOM     23  O4  UNL     1     155.788 163.753 161.691  0.00  0.00    +0.000 OA
ENDBRANCH  18  21
ENDBRANCH  14  15
ENDBRANCH  13  14
ENDBRANCH   8  13
ENDBRANCH   4   7
BRANCH   1  24
ATOM     24  C6  UNL     1     151.132 160.550 170.312  0.00  0.00    +0.000 C 
BRANCH  24  25
ATOM     25  C5  UNL     1     151.454 159.455 169.395  0.00  0.00    +0.000 C 
BRANCH  25  26
ATOM     26  C3  UNL     1     152.931 159.161 169.352  0.00  0.00    +0.000 C 
ATOM     27  C4  UNL     1     153.357 157.715 169.388  0.00  0.00    +0.000 C 
BRANCH  26  28
ATOM     28  C23 UNL     1     153.534 159.505 168.047  0.00  0.00    +0.000 A 
ATOM     29  C24 UNL     1     154.137 158.648 167.240  0.00  0.00    +0.000 A 
ATOM     30  C25 UNL     1     154.633 158.806 166.031  0.00  0.00    +0.000 A 
ATOM     31  C26 UNL     1     154.578 160.103 165.372  0.00  0.00    +0.000 A 
ATOM     32  C27 UNL     1     154.001 161.103 166.226  0.00  0.00    +0.000 A 
ATOM     33  C28 UNL     1     153.513 160.828 167.484  0.00  0.00    +0.000 A 
ENDBRANCH  26  28
BRANCH  26  34
ATOM     34  C2  UNL     1     153.546 159.911 170.480  0.00  0.00    +0.000 C 
BRANCH  34  36
ATOM     35  C1  UNL     1     154.555 161.830 171.232  0.00  0.00    +0.000 C 
ATOM     36  N1  UNL     1     154.759 160.622 170.357  0.00  0.00    +0.000 NA
BRANCH  36  37
ATOM     37  S1  UNL     1     156.224 159.939 170.904  0.00  0.00    +0.000 S 
ATOM     38  O5  UNL     1     157.069 160.869 171.637  0.00  0.00    +0.000 OA
ATOM     39  O6  UNL     1     155.894 158.688 171.660  0.00  0.00    +0.000 OA
BRANCH  37  40
ATOM     40  C29 UNL     1     157.143 159.369 169.466  0.00  0.00    +0.000 A 
ATOM     41  C30 UNL     1     157.389 158.056 169.232  0.00  0.00    +0.000 A 
ATOM     42  C31 UNL     1     157.860 157.721 167.922  0.00  0.00    +0.000 A 
ATOM     43  C32 UNL     1     158.076 158.733 167.029  0.00  0.00    +0.000 A 
ATOM     44  C33 UNL     1     157.858 160.012 167.199  0.00  0.00    +0.000 A 
ATOM     45  C34 UNL     1     157.338 160.285 168.524  0.00  0.00    +0.000 A 
ENDBRANCH  37  40
ENDBRANCH  36  37
ENDBRANCH  34  36
ENDBRANCH  26  34
ENDBRANCH  25  26
ENDBRANCH  24  25
ENDBRANCH   1  24
TORSDOF 15
ENDMDL
MODEL 5
REMARK VINA RESULT:      -6.8      3.239      5.289
REMARK  Name = ./3D_structures\o60_MMV1782214_3D.pdb
REMARK  17 active torsions:
REMARK  status: ('A' for Active; 'I' for Inactive)
REMARK    1  A    between atoms: C1_1  and  N1_2
REMARK    2  A    between atoms: N1_2  and  C2_3
REMARK    3  A    between atoms: N1_2  and  S1_37
REMARK    4  A    between atoms: C2_3  and  C3_4
REMARK    5  A    between atoms: C3_4  and  C4_5
REMARK    6  A    between atoms: C3_4  and  C5_6
REMARK    7  A    between atoms: C3_4  and  C23_31
REMARK    8  A    between atoms: C5_6  and  C6_7
REMARK    9  A    between atoms: C6_7  and  N2_8
REMARK   10  A    between atoms: C9_11  and  N3_14
REMARK   11  A    between atoms: N3_14  and  C12_15
REMARK   12  A    between atoms: C12_15  and  C13_16
REMARK   13  A    between atoms: C15_18  and  O2_20
REMARK   14  A    between atoms: O2_20  and  C16_21
REMARK   15  A    between atoms: C16_21  and  C17_22
REMARK   16  A    between atoms: C20_25  and  N4_28
REMARK   17  A    between atoms: S1_37  and  C29_40
REMARK                            x       y       z     vdW  Elec       q    Type
REMARK                         _______ _______ _______ _____ _____    ______ ____
ROOT
ATOM      1  N2  UNL     1     153.914 161.582 169.910  0.00  0.00    +0.000 NA
ATOM      2  C7  UNL     1     152.664 161.194 170.308  0.00  0.00    +0.000 C 
ATOM      3  C8  UNL     1     151.515 161.699 169.577  0.00  0.00    +0.000 C 
ATOM      4  C9  UNL     1     151.741 163.156 168.937  0.00  0.00    +0.000 C 
ATOM      5  C10 UNL     1     153.099 163.312 168.526  0.00  0.00    +0.000 C 
ATOM      6  C11 UNL     1     154.126 162.970 169.539  0.00  0.00    +0.000 C 
ENDROOT
BRANCH   4   7
ATOM      7  N3  UNL     1     151.121 164.055 169.789  0.00  0.00    +0.000 N 
ATOM      8  C15 UNL     1     149.756 164.511 169.547  0.00  0.00    +0.000 C 
ATOM      9  O1  UNL     1     149.286 164.829 170.728  0.00  0.00    +0.000 OA
BRANCH   7  10
ATOM     10  C12 UNL     1     151.746 164.931 170.773  0.00  0.00    +0.000 C 
BRANCH  10  11
ATOM     11  C13 UNL     1     152.036 164.262 172.083  0.00  0.00    +0.000 C 
ATOM     12  C14 UNL     1     152.693 163.998 173.091  0.00  0.00    +0.000 C 
ENDBRANCH  10  11
ENDBRANCH   7  10
BRANCH   8  13
ATOM     13  O2  UNL     1     149.180 164.534 168.372  0.00  0.00    +0.000 OA
BRANCH  13  14
ATOM     14  C16 UNL     1     148.346 163.511 167.801  0.00  0.00    +0.000 C 
BRANCH  14  15
ATOM     15  C17 UNL     1     147.548 164.346 166.770  0.00  0.00    +0.000 A 
ATOM     16  C18 UNL     1     148.001 165.568 166.377  0.00  0.00    +0.000 A 
ATOM     17  C19 UNL     1     147.114 166.568 165.873  0.00  0.00    +0.000 A 
ATOM     18  C20 UNL     1     145.794 166.153 165.762  0.00  0.00    +0.000 A 
ATOM     19  C21 UNL     1     145.397 164.917 166.128  0.00  0.00    +0.000 A 
ATOM     20  C22 UNL     1     146.246 163.966 166.655  0.00  0.00    +0.000 A 
BRANCH  18  21
ATOM     21  N4  UNL     1     144.792 167.204 165.610  0.00  0.00    +0.000 N 
ATOM     22  O3  UNL     1     143.547 166.904 165.263  0.00  0.00    +0.000 OA
ATOM     23  O4  UNL     1     145.078 168.405 165.907  0.00  0.00    +0.000 OA
ENDBRANCH  18  21
ENDBRANCH  14  15
ENDBRANCH  13  14
ENDBRANCH   8  13
ENDBRANCH   4   7
BRANCH   1  24
ATOM     24  C6  UNL     1     154.790 160.776 169.186  0.00  0.00    +0.000 C 
BRANCH  24  25
ATOM     25  C5  UNL     1     154.205 159.683 168.405  0.00  0.00    +0.000 C 
BRANCH  25  26
ATOM     26  C3  UNL     1     154.722 159.651 166.990  0.00  0.00    +0.000 C 
ATOM     27  C4  UNL     1     154.394 158.440 166.154  0.00  0.00    +0.000 C 
BRANCH  26  28
ATOM     28  C23 UNL     1     154.067 160.659 166.130  0.00  0.00    +0.000 A 
ATOM     29  C24 UNL     1     154.675 161.691 165.572  0.00  0.00    +0.000 A 
ATOM     30  C25 UNL     1     154.232 162.599 164.728  0.00  0.00    +0.000 A 
ATOM     31  C26 UNL     1     152.851 162.573 164.269  0.00  0.00    +0.000 A 
ATOM     32  C27 UNL     1     152.108 161.515 164.897  0.00  0.00    +0.000 A 
ATOM     33  C28 UNL     1     152.673 160.617 165.774  0.00  0.00    +0.000 A 
ENDBRANCH  26  28
BRANCH  26  34
ATOM     34  C2  UNL     1     156.195 159.843 167.072  0.00  0.00    +0.000 C 
BRANCH  34  36
ATOM     35  C1  UNL     1     158.230 160.031 166.028  0.00  0.00    +0.000 C 
ATOM     36  N1  UNL     1     157.112 159.068 166.331  0.00  0.00    +0.000 NA
BRANCH  36  37
ATOM     37  S1  UNL     1     157.884 157.723 167.041  0.00  0.00    +0.000 S 
ATOM     38  O5  UNL     1     157.434 156.442 166.517  0.00  0.00    +0.000 OA
ATOM     39  O6  UNL     1     159.364 157.936 166.941  0.00  0.00    +0.000 OA
BRANCH  37  40
ATOM     40  C29 UNL     1     157.541 157.751 168.807  0.00  0.00    +0.000 A 
ATOM     41  C30 UNL     1     158.166 158.602 169.657  0.00  0.00    +0.000 A 
ATOM     42  C31 UNL     1     157.595 158.730 170.964  0.00  0.00    +0.000 A 
ATOM     43  C32 UNL     1     156.509 157.962 171.278  0.00  0.00    +0.000 A 
ATOM     44  C33 UNL     1     155.866 157.127 170.501  0.00  0.00    +0.000 A 
ATOM     45  C34 UNL     1     156.460 157.075 169.180  0.00  0.00    +0.000 A 
ENDBRANCH  37  40
ENDBRANCH  36  37
ENDBRANCH  34  36
ENDBRANCH  26  34
ENDBRANCH  25  26
ENDBRANCH  24  25
ENDBRANCH   1  24
TORSDOF 15
ENDMDL
MODEL 6
REMARK VINA RESULT:      -6.8      1.605      2.060
REMARK  Name = ./3D_structures\o60_MMV1782214_3D.pdb
REMARK  17 active torsions:
REMARK  status: ('A' for Active; 'I' for Inactive)
REMARK    1  A    between atoms: C1_1  and  N1_2
REMARK    2  A    between atoms: N1_2  and  C2_3
REMARK    3  A    between atoms: N1_2  and  S1_37
REMARK    4  A    between atoms: C2_3  and  C3_4
REMARK    5  A    between atoms: C3_4  and  C4_5
REMARK    6  A    between atoms: C3_4  and  C5_6
REMARK    7  A    between atoms: C3_4  and  C23_31
REMARK    8  A    between atoms: C5_6  and  C6_7
REMARK    9  A    between atoms: C6_7  and  N2_8
REMARK   10  A    between atoms: C9_11  and  N3_14
REMARK   11  A    between atoms: N3_14  and  C12_15
REMARK   12  A    between atoms: C12_15  and  C13_16
REMARK   13  A    between atoms: C15_18  and  O2_20
REMARK   14  A    between atoms: O2_20  and  C16_21
REMARK   15  A    between atoms: C16_21  and  C17_22
REMARK   16  A    between atoms: C20_25  and  N4_28
REMARK   17  A    between atoms: S1_37  and  C29_40
REMARK                            x       y       z     vdW  Elec       q    Type
REMARK                         _______ _______ _______ _____ _____    ______ ____
ROOT
ATOM      1  N2  UNL     1     151.413 162.910 169.161  0.00  0.00    +0.000 NA
ATOM      2  C7  UNL     1     150.794 163.976 169.755  0.00  0.00    +0.000 C 
ATOM      3  C8  UNL     1     149.416 164.265 169.400  0.00  0.00    +0.000 C 
ATOM      4  C9  UNL     1     149.033 163.847 167.896  0.00  0.00    +0.000 C 
ATOM      5  C10 UNL     1     149.740 162.668 167.512  0.00  0.00    +0.000 C 
ATOM      6  C11 UNL     1     151.205 162.690 167.741  0.00  0.00    +0.000 C 
ENDROOT
BRANCH   4   7
ATOM      7  N3  UNL     1     149.076 165.010 167.145  0.00  0.00    +0.000 N 
ATOM      8  C15 UNL     1     147.930 165.445 166.352  0.00  0.00    +0.000 C 
ATOM      9  O1  UNL     1     148.045 166.747 166.269  0.00  0.00    +0.000 OA
BRANCH   7  10
ATOM     10  C12 UNL     1     150.255 165.759 166.725  0.00  0.00    +0.000 C 
BRANCH  10  11
ATOM     11  C13 UNL     1     150.796 165.340 165.392  0.00  0.00    +0.000 C 
ATOM     12  C14 UNL     1     151.657 164.974 164.591  0.00  0.00    +0.000 C 
ENDBRANCH  10  11
ENDBRANCH   7  10
BRANCH   8  13
ATOM     13  O2  UNL     1     147.003 164.645 165.889  0.00  0.00    +0.000 OA
BRANCH  13  14
ATOM     14  C16 UNL     1     145.584 164.866 165.913  0.00  0.00    +0.000 C 
BRANCH  14  15
ATOM     15  C17 UNL     1     145.131 163.682 166.802  0.00  0.00    +0.000 A 
ATOM     16  C18 UNL     1     145.279 163.743 168.154  0.00  0.00    +0.000 A 
ATOM     17  C19 UNL     1     145.378 162.561 168.950  0.00  0.00    +0.000 A 
ATOM     18  C20 UNL     1     145.241 161.381 168.233  0.00  0.00    +0.000 A 
ATOM     19  C21 UNL     1     145.056 161.370 166.897  0.00  0.00    +0.000 A 
ATOM     20  C22 UNL     1     145.004 162.510 166.123  0.00  0.00    +0.000 A 
BRANCH  18  21
ATOM     21  N4  UNL     1     145.688 160.160 168.897  0.00  0.00    +0.000 N 
ATOM     22  O3  UNL     1     144.930 159.573 169.814  0.00  0.00    +0.000 OA
ATOM     23  O4  UNL     1     146.765 159.594 168.532  0.00  0.00    +0.000 OA
ENDBRANCH  18  21
ENDBRANCH  14  15
ENDBRANCH  13  14
ENDBRANCH   8  13
ENDBRANCH   4   7
BRANCH   1  24
ATOM     24  C6  UNL     1     151.635 161.686 169.786  0.00  0.00    +0.000 C 
BRANCH  24  25
ATOM     25  C5  UNL     1     153.027 161.287 170.006  0.00  0.00    +0.000 C 
BRANCH  25  26
ATOM     26  C3  UNL     1     153.303 159.885 169.529  0.00  0.00    +0.000 C 
ATOM     27  C4  UNL     1     152.118 159.026 169.163  0.00  0.00    +0.000 C 
BRANCH  26  28
ATOM     28  C23 UNL     1     153.969 159.862 168.209  0.00  0.00    +0.000 A 
ATOM     29  C24 UNL     1     154.746 160.820 167.734  0.00  0.00    +0.000 A 
ATOM     30  C25 UNL     1     155.457 160.885 166.629  0.00  0.00    +0.000 A 
ATOM     31  C26 UNL     1     155.459 159.778 165.684  0.00  0.00    +0.000 A 
ATOM     32  C27 UNL     1     154.573 158.727 166.102  0.00  0.00    +0.000 A 
ATOM     33  C28 UNL     1     153.868 158.764 167.285  0.00  0.00    +0.000 A 
ENDBRANCH  26  28
BRANCH  26  34
ATOM     34  C2  UNL     1     154.114 159.227 170.588  0.00  0.00    +0.000 C 
BRANCH  34  36
ATOM     35  C1  UNL     1     155.601 159.954 172.177  0.00  0.00    +0.000 C 
ATOM     36  N1  UNL     1     155.495 159.467 170.757  0.00  0.00    +0.000 NA
BRANCH  36  37
ATOM     37  S1  UNL     1     156.616 158.185 170.657  0.00  0.00    +0.000 S 
ATOM     38  O5  UNL     1     157.780 158.354 171.513  0.00  0.00    +0.000 OA
ATOM     39  O6  UNL     1     155.872 156.904 170.885  0.00  0.00    +0.000 OA
BRANCH  37  40
ATOM     40  C29 UNL     1     157.189 158.078 168.955  0.00  0.00    +0.000 A 
ATOM     41  C30 UNL     1     158.107 158.932 168.440  0.00  0.00    +0.000 A 
ATOM     42  C31 UNL     1     158.692 158.560 167.187  0.00  0.00    +0.000 A 
ATOM     43  C32 UNL     1     158.257 157.415 166.581  0.00  0.00    +0.000 A 
ATOM     44  C33 UNL     1     157.378 156.554 167.029  0.00  0.00    +0.000 A 
ATOM     45  C34 UNL     1     156.857 156.959 168.319  0.00  0.00    +0.000 A 
ENDBRANCH  37  40
ENDBRANCH  36  37
ENDBRANCH  34  36
ENDBRANCH  26  34
ENDBRANCH  25  26
ENDBRANCH  24  25
ENDBRANCH   1  24
TORSDOF 15
ENDMDL
MODEL 7
REMARK VINA RESULT:      -6.7      1.663      2.259
REMARK  Name = ./3D_structures\o60_MMV1782214_3D.pdb
REMARK  17 active torsions:
REMARK  status: ('A' for Active; 'I' for Inactive)
REMARK    1  A    between atoms: C1_1  and  N1_2
REMARK    2  A    between atoms: N1_2  and  C2_3
REMARK    3  A    between atoms: N1_2  and  S1_37
REMARK    4  A    between atoms: C2_3  and  C3_4
REMARK    5  A    between atoms: C3_4  and  C4_5
REMARK    6  A    between atoms: C3_4  and  C5_6
REMARK    7  A    between atoms: C3_4  and  C23_31
REMARK    8  A    between atoms: C5_6  and  C6_7
REMARK    9  A    between atoms: C6_7  and  N2_8
REMARK   10  A    between atoms: C9_11  and  N3_14
REMARK   11  A    between atoms: N3_14  and  C12_15
REMARK   12  A    between atoms: C12_15  and  C13_16
REMARK   13  A    between atoms: C15_18  and  O2_20
REMARK   14  A    between atoms: O2_20  and  C16_21
REMARK   15  A    between atoms: C16_21  and  C17_22
REMARK   16  A    between atoms: C20_25  and  N4_28
REMARK   17  A    between atoms: S1_37  and  C29_40
REMARK                            x       y       z     vdW  Elec       q    Type
REMARK                         _______ _______ _______ _____ _____    ______ ____
ROOT
ATOM      1  N2  UNL     1     150.282 162.486 168.857  0.00  0.00    +0.000 NA
ATOM      2  C7  UNL     1     149.941 163.608 169.563  0.00  0.00    +0.000 C 
ATOM      3  C8  UNL     1     148.576 164.093 169.478  0.00  0.00    +0.000 C 
ATOM      4  C9  UNL     1     147.860 163.776 168.074  0.00  0.00    +0.000 C 
ATOM      5  C10 UNL     1     148.310 162.524 167.559  0.00  0.00    +0.000 C 
ATOM      6  C11 UNL     1     149.780 162.339 167.502  0.00  0.00    +0.000 C 
ENDROOT
BRANCH   4   7
ATOM      7  N3  UNL     1     147.922 164.944 167.333  0.00  0.00    +0.000 N 
ATOM      8  C15 UNL     1     146.917 165.256 166.321  0.00  0.00    +0.000 C 
ATOM      9  O1  UNL     1     146.900 166.563 166.246  0.00  0.00    +0.000 OA
BRANCH   7  10
ATOM     10  C12 UNL     1     149.070 165.825 167.149  0.00  0.00    +0.000 C 
BRANCH  10  11
ATOM     11  C13 UNL     1     149.878 165.520 165.924  0.00  0.00    +0.000 C 
ATOM     12  C14 UNL     1     150.905 165.359 165.264  0.00  0.00    +0.000 C 
ENDBRANCH  10  11
ENDBRANCH   7  10
BRANCH   8  13
ATOM     13  O2  UNL     1     146.198 164.361 165.692  0.00  0.00    +0.000 OA
BRANCH  13  14
ATOM     14  C16 UNL     1     144.872 164.536 165.168  0.00  0.00    +0.000 C 
BRANCH  14  15
ATOM     15  C17 UNL     1     144.454 163.058 164.966  0.00  0.00    +0.000 A 
ATOM     16  C18 UNL     1     144.626 162.154 165.970  0.00  0.00    +0.000 A 
ATOM     17  C19 UNL     1     144.758 160.757 165.702  0.00  0.00    +0.000 A 
ATOM     18  C20 UNL     1     144.626 160.420 164.362  0.00  0.00    +0.000 A 
ATOM     19  C21 UNL     1     144.418 161.348 163.406  0.00  0.00    +0.000 A 
ATOM     20  C22 UNL     1     144.333 162.701 163.659  0.00  0.00    +0.000 A 
BRANCH  18  21
ATOM     21  N4  UNL     1     145.105 159.097 163.974  0.00  0.00    +0.000 N 
ATOM     22  O3  UNL     1     145.432 158.840 162.714  0.00  0.00    +0.000 OA
ATOM     23  O4  UNL     1     145.307 158.206 164.857  0.00  0.00    +0.000 OA
ENDBRANCH  18  21
ENDBRANCH  14  15
ENDBRANCH  13  14
ENDBRANCH   8  13
ENDBRANCH   4   7
BRANCH   1  24
ATOM     24  C6  UNL     1     150.445 161.225 169.425  0.00  0.00    +0.000 C 
BRANCH  24  25
ATOM     25  C5  UNL     1     151.237 160.248 168.674  0.00  0.00    +0.000 C 
BRANCH  25  26
ATOM     26  C3  UNL     1     152.230 159.525 169.546  0.00  0.00    +0.000 C 
ATOM     27  C4  UNL     1     151.762 158.277 170.251  0.00  0.00    +0.000 C 
BRANCH  26  28
ATOM     28  C23 UNL     1     153.319 158.904 168.762  0.00  0.00    +0.000 A 
ATOM     29  C24 UNL     1     154.073 157.899 169.174  0.00  0.00    +0.000 A 
ATOM     30  C25 UNL     1     155.004 157.208 168.551  0.00  0.00    +0.000 A 
ATOM     31  C26 UNL     1     155.360 157.519 167.174  0.00  0.00    +0.000 A 
ATOM     32  C27 UNL     1     154.628 158.655 166.685  0.00  0.00    +0.000 A 
ATOM     33  C28 UNL     1     153.672 159.311 167.428  0.00  0.00    +0.000 A 
ENDBRANCH  26  28
BRANCH  26  34
ATOM     34  C2  UNL     1     152.734 160.520 170.531  0.00  0.00    +0.000 C 
BRANCH  34  36
ATOM     35  C1  UNL     1     153.663 162.618 170.530  0.00  0.00    +0.000 C 
ATOM     36  N1  UNL     1     153.989 161.153 170.408  0.00  0.00    +0.000 NA
BRANCH  36  37
ATOM     37  S1  UNL     1     155.212 160.887 171.567  0.00  0.00    +0.000 S 
ATOM     38  O5  UNL     1     155.680 162.102 172.217  0.00  0.00    +0.000 OA
ATOM     39  O6  UNL     1     154.724 159.837 172.518  0.00  0.00    +0.000 OA
BRANCH  37  40
ATOM     40  C29 UNL     1     156.614 160.128 170.734  0.00  0.00    +0.000 A 
ATOM     41  C30 UNL     1     157.256 159.042 171.231  0.00  0.00    +0.000 A 
ATOM     42  C31 UNL     1     158.147 158.365 170.337  0.00  0.00    +0.000 A 
ATOM     43  C32 UNL     1     158.325 158.878 169.083  0.00  0.00    +0.000 A 
ATOM     44  C33 UNL     1     157.735 159.918 168.551  0.00  0.00    +0.000 A 
ATOM     45  C34 UNL     1     156.812 160.533 169.484  0.00  0.00    +0.000 A 
ENDBRANCH  37  40
ENDBRANCH  36  37
ENDBRANCH  34  36
ENDBRANCH  26  34
ENDBRANCH  25  26
ENDBRANCH  24  25
ENDBRANCH   1  24
TORSDOF 15
ENDMDL
MODEL 8
REMARK VINA RESULT:      -6.6      2.874      4.776
REMARK  Name = ./3D_structures\o60_MMV1782214_3D.pdb
REMARK  17 active torsions:
REMARK  status: ('A' for Active; 'I' for Inactive)
REMARK    1  A    between atoms: C1_1  and  N1_2
REMARK    2  A    between atoms: N1_2  and  C2_3
REMARK    3  A    between atoms: N1_2  and  S1_37
REMARK    4  A    between atoms: C2_3  and  C3_4
REMARK    5  A    between atoms: C3_4  and  C4_5
REMARK    6  A    between atoms: C3_4  and  C5_6
REMARK    7  A    between atoms: C3_4  and  C23_31
REMARK    8  A    between atoms: C5_6  and  C6_7
REMARK    9  A    between atoms: C6_7  and  N2_8
REMARK   10  A    between atoms: C9_11  and  N3_14
REMARK   11  A    between atoms: N3_14  and  C12_15
REMARK   12  A    between atoms: C12_15  and  C13_16
REMARK   13  A    between atoms: C15_18  and  O2_20
REMARK   14  A    between atoms: O2_20  and  C16_21
REMARK   15  A    between atoms: C16_21  and  C17_22
REMARK   16  A    between atoms: C20_25  and  N4_28
REMARK   17  A    between atoms: S1_37  and  C29_40
REMARK                            x       y       z     vdW  Elec       q    Type
REMARK                         _______ _______ _______ _____ _____    ______ ____
ROOT
ATOM      1  N2  UNL     1     153.325 163.141 172.283  0.00  0.00    +0.000 NA
ATOM      2  C7  UNL     1     152.288 162.398 171.787  0.00  0.00    +0.000 C 
ATOM      3  C8  UNL     1     151.674 162.811 170.538  0.00  0.00    +0.000 C 
ATOM      4  C9  UNL     1     151.722 164.398 170.284  0.00  0.00    +0.000 C 
ATOM      5  C10 UNL     1     152.924 164.950 170.819  0.00  0.00    +0.000 C 
ATOM      6  C11 UNL     1     153.232 164.589 172.224  0.00  0.00    +0.000 C 
ENDROOT
BRANCH   4   7
ATOM      7  N3  UNL     1     150.471 164.884 170.625  0.00  0.00    +0.000 N 
ATOM      8  C15 UNL     1     149.301 164.619 169.794  0.00  0.00    +0.000 C 
ATOM      9  O1  UNL     1     148.279 164.671 170.612  0.00  0.00    +0.000 OA
BRANCH   7  10
ATOM     10  C12 UNL     1     150.154 165.957 171.561  0.00  0.00    +0.000 C 
BRANCH  10  11
ATOM     11  C13 UNL     1     150.422 167.330 171.023  0.00  0.00    +0.000 C 
ATOM     12  C14 UNL     1     150.319 168.555 170.964  0.00  0.00    +0.000 C 
ENDBRANCH  10  11
ENDBRANCH   7  10
BRANCH   8  13
ATOM     13  O2  UNL     1     149.347 164.355 168.512  0.00  0.00    +0.000 OA
BRANCH  13  14
ATOM     14  C16 UNL     1     148.556 163.387 167.803  0.00  0.00    +0.000 C 
BRANCH  14  15
ATOM     15  C17 UNL     1     147.829 164.308 166.793  0.00  0.00    +0.000 A 
ATOM     16  C18 UNL     1     148.318 165.549 166.520  0.00  0.00    +0.000 A 
ATOM     17  C19 UNL     1     147.472 166.597 166.042  0.00  0.00    +0.000 A 
ATOM     18  C20 UNL     1     146.158 166.211 165.822  0.00  0.00    +0.000 A 
ATOM     19  C21 UNL     1     145.727 164.957 166.070  0.00  0.00    +0.000 A 
ATOM     20  C22 UNL     1     146.533 163.957 166.573  0.00  0.00    +0.000 A 
BRANCH  18  21
ATOM     21  N4  UNL     1     145.178 167.285 165.692  0.00  0.00    +0.000 N 
ATOM     22  O3  UNL     1     145.556 168.555 165.744  0.00  0.00    +0.000 OA
ATOM     23  O4  UNL     1     143.965 167.013 165.429  0.00  0.00    +0.000 OA
ENDBRANCH  18  21
ENDBRANCH  14  15
ENDBRANCH  13  14
ENDBRANCH   8  13
ENDBRANCH   4   7
BRANCH   1  24
ATOM     24  C6  UNL     1     154.664 162.765 172.207  0.00  0.00    +0.000 C 
BRANCH  24  25
ATOM     25  C5  UNL     1     155.102 162.090 170.983  0.00  0.00    +0.000 C 
BRANCH  25  26
ATOM     26  C3  UNL     1     155.676 160.724 171.257  0.00  0.00    +0.000 C 
ATOM     27  C4  UNL     1     155.468 160.143 172.632  0.00  0.00    +0.000 C 
BRANCH  26  28
ATOM     28  C23 UNL     1     154.987 159.662 170.495  0.00  0.00    +0.000 A 
ATOM     29  C24 UNL     1     153.995 159.860 169.645  0.00  0.00    +0.000 A 
ATOM     30  C25 UNL     1     153.361 159.023 168.850  0.00  0.00    +0.000 A 
ATOM     31  C26 UNL     1     153.716 157.612 168.825  0.00  0.00    +0.000 A 
ATOM     32  C27 UNL     1     154.743 157.311 169.784  0.00  0.00    +0.000 A 
ATOM     33  C28 UNL     1     155.339 158.269 170.574  0.00  0.00    +0.000 A 
ENDBRANCH  26  28
BRANCH  26  34
ATOM     34  C2  UNL     1     157.128 160.803 170.940  0.00  0.00    +0.000 C 
BRANCH  34  36
ATOM     35  C1  UNL     1     158.516 162.036 169.592  0.00  0.00    +0.000 C 
ATOM     36  N1  UNL     1     157.624 160.823 169.619  0.00  0.00    +0.000 NA
BRANCH  36  37
ATOM     37  S1  UNL     1     158.607 159.554 169.042  0.00  0.00    +0.000 S 
ATOM     38  O5  UNL     1     159.886 159.998 168.506  0.00  0.00    +0.000 OA
ATOM     39  O6  UNL     1     158.725 158.532 170.131  0.00  0.00    +0.000 OA
BRANCH  37  40
ATOM     40  C29 UNL     1     157.716 158.713 167.725  0.00  0.00    +0.000 A 
ATOM     41  C30 UNL     1     157.729 157.365 167.582  0.00  0.00    +0.000 A 
ATOM     42  C31 UNL     1     156.753 156.809 166.693  0.00  0.00    +0.000 A 
ATOM     43  C32 UNL     1     155.922 157.662 166.023  0.00  0.00    +0.000 A 
ATOM     44  C33 UNL     1     155.864 158.967 166.121  0.00  0.00    +0.000 A 
ATOM     45  C34 UNL     1     156.841 159.467 167.068  0.00  0.00    +0.000 A 
ENDBRANCH  37  40
ENDBRANCH  36  37
ENDBRANCH  34  36
ENDBRANCH  26  34
ENDBRANCH  25  26
ENDBRANCH  24  25
ENDBRANCH   1  24
TORSDOF 15
ENDMDL
MODEL 9
REMARK VINA RESULT:      -6.5      3.274      5.662
REMARK  Name = ./3D_structures\o60_MMV1782214_3D.pdb
REMARK  17 active torsions:
REMARK  status: ('A' for Active; 'I' for Inactive)
REMARK    1  A    between atoms: C1_1  and  N1_2
REMARK    2  A    between atoms: N1_2  and  C2_3
REMARK    3  A    between atoms: N1_2  and  S1_37
REMARK    4  A    between atoms: C2_3  and  C3_4
REMARK    5  A    between atoms: C3_4  and  C4_5
REMARK    6  A    between atoms: C3_4  and  C5_6
REMARK    7  A    between atoms: C3_4  and  C23_31
REMARK    8  A    between atoms: C5_6  and  C6_7
REMARK    9  A    between atoms: C6_7  and  N2_8
REMARK   10  A    between atoms: C9_11  and  N3_14
REMARK   11  A    between atoms: N3_14  and  C12_15
REMARK   12  A    between atoms: C12_15  and  C13_16
REMARK   13  A    between atoms: C15_18  and  O2_20
REMARK   14  A    between atoms: O2_20  and  C16_21
REMARK   15  A    between atoms: C16_21  and  C17_22
REMARK   16  A    between atoms: C20_25  and  N4_28
REMARK   17  A    between atoms: S1_37  and  C29_40
REMARK                            x       y       z     vdW  Elec       q    Type
REMARK                         _______ _______ _______ _____ _____    ______ ____
ROOT
ATOM      1  N2  UNL     1     155.592 163.240 166.512  0.00  0.00    +0.000 NA
ATOM      2  C7  UNL     1     155.322 164.582 166.479  0.00  0.00    +0.000 C 
ATOM      3  C8  UNL     1     153.994 165.032 166.856  0.00  0.00    +0.000 C 
ATOM      4  C9  UNL     1     152.832 163.969 166.536  0.00  0.00    +0.000 C 
ATOM      5  C10 UNL     1     153.316 162.638 166.706  0.00  0.00    +0.000 C 
ATOM      6  C11 UNL     1     154.588 162.318 166.012  0.00  0.00    +0.000 C 
ENDROOT
BRANCH   4   7
ATOM      7  N3  UNL     1     152.232 164.391 165.361  0.00  0.00    +0.000 N 
ATOM      8  C15 UNL     1     151.216 165.438 165.361  0.00  0.00    +0.000 C 
ATOM      9  O1  UNL     1     151.289 165.987 164.174  0.00  0.00    +0.000 OA
BRANCH   7  10
ATOM     10  C12 UNL     1     152.204 163.703 164.075  0.00  0.00    +0.000 C 
BRANCH  10  11
ATOM     11  C13 UNL     1     153.490 163.793 163.311  0.00  0.00    +0.000 C 
ATOM     12  C14 UNL     1     154.526 164.325 162.910  0.00  0.00    +0.000 C 
ENDBRANCH  10  11
ENDBRANCH   7  10
BRANCH   8  13
ATOM     13  O2  UNL     1     150.455 165.732 166.385  0.00  0.00    +0.000 OA
BRANCH  13  14
ATOM     14  C16 UNL     1     149.175 165.159 166.700  0.00  0.00    +0.000 C 
BRANCH  14  15
ATOM     15  C17 UNL     1     149.513 164.432 168.025  0.00  0.00    +0.000 A 
ATOM     16  C18 UNL     1     150.259 165.055 168.979  0.00  0.00    +0.000 A 
ATOM     17  C19 UNL     1     151.019 164.314 169.936  0.00  0.00    +0.000 A 
ATOM     18  C20 UNL     1     150.866 162.938 169.840  0.00  0.00    +0.000 A 
ATOM     19  C21 UNL     1     150.085 162.366 168.902  0.00  0.00    +0.000 A 
ATOM     20  C22 UNL     1     149.386 163.079 167.951  0.00  0.00    +0.000 A 
BRANCH  18  21
ATOM     21  N4  UNL     1     151.868 162.124 170.521  0.00  0.00    +0.000 N 
ATOM     22  O3  UNL     1     153.161 162.310 170.290  0.00  0.00    +0.000 OA
ATOM     23  O4  UNL     1     151.515 161.294 171.416  0.00  0.00    +0.000 OA
ENDBRANCH  18  21
ENDBRANCH  14  15
ENDBRANCH  13  14
ENDBRANCH   8  13
ENDBRANCH   4   7
BRANCH   1  24
ATOM     24  C6  UNL     1     156.329 162.615 167.515  0.00  0.00    +0.000 C 
BRANCH  24  25
ATOM     25  C5  UNL     1     156.210 161.160 167.627  0.00  0.00    +0.000 C 
BRANCH  25  26
ATOM     26  C3  UNL     1     157.412 160.538 168.290  0.00  0.00    +0.000 C 
ATOM     27  C4  UNL     1     158.548 161.450 168.674  0.00  0.00    +0.000 C 
BRANCH  26  28
ATOM     28  C23 UNL     1     157.107 160.034 169.646  0.00  0.00    +0.000 A 
ATOM     29  C24 UNL     1     156.182 160.530 170.450  0.00  0.00    +0.000 A 
ATOM     30  C25 UNL     1     155.758 160.126 171.629  0.00  0.00    +0.000 A 
ATOM     31  C26 UNL     1     156.341 158.952 172.263  0.00  0.00    +0.000 A 
ATOM     32  C27 UNL     1     157.409 158.404 171.474  0.00  0.00    +0.000 A 
ATOM     33  C28 UNL     1     157.775 158.910 170.247  0.00  0.00    +0.000 A 
ENDBRANCH  26  28
BRANCH  26  34
ATOM     34  C2  UNL     1     157.891 159.465 167.378  0.00  0.00    +0.000 C 
BRANCH  34  36
ATOM     35  C1  UNL     1     158.004 158.504 165.298  0.00  0.00    +0.000 C 
ATOM     36  N1  UNL     1     157.061 158.843 166.421  0.00  0.00    +0.000 NA
BRANCH  36  37
ATOM     37  S1  UNL     1     156.272 157.374 166.779  0.00  0.00    +0.000 S 
ATOM     38  O5  UNL     1     155.828 156.643 165.602  0.00  0.00    +0.000 OA
ATOM     39  O6  UNL     1     157.163 156.583 167.687  0.00  0.00    +0.000 OA
BRANCH  37  40
ATOM     40  C29 UNL     1     154.824 157.748 167.779  0.00  0.00    +0.000 A 
ATOM     41  C30 UNL     1     154.646 157.239 169.022  0.00  0.00    +0.000 A 
ATOM     42  C31 UNL     1     153.618 157.843 169.817  0.00  0.00    +0.000 A 
ATOM     43  C32 UNL     1     152.866 158.840 169.260  0.00  0.00    +0.000 A 
ATOM     44  C33 UNL     1     152.992 159.370 168.070  0.00  0.00    +0.000 A 
ATOM     45  C34 UNL     1     154.076 158.752 167.332  0.00  0.00    +0.000 A 
ENDBRANCH  37  40
ENDBRANCH  36  37
ENDBRANCH  34  36
ENDBRANCH  26  34
ENDBRANCH  25  26
ENDBRANCH  24  25
ENDBRANCH   1  24
TORSDOF 15
ENDMDL
