MODEL 1
REMARK VINA RESULT:      -6.7      0.000      0.000
REMARK  Name = ./3D_structures\o63_MMV1782208_3D.pdb
REMARK  4 active torsions:
REMARK  status: ('A' for Active; 'I' for Inactive)
REMARK    1  A    between atoms: C1_1  and  N1_2
REMARK    2  A    between atoms: C3_5  and  C18_25
REMARK    3  A    between atoms: N2_8  and  C5_9
REMARK    4  A    between atoms: C13_17  and  C17_21
REMARK                            x       y       z     vdW  Elec       q    Type
REMARK                         _______ _______ _______ _____ _____    ______ ____
ROOT
ATOM      1  C1  UNL     1     156.135 159.330 172.058  0.00  0.00    +0.000 C 
ATOM      2  N1  UNL     1     155.708 159.350 170.652  0.00  0.00    +0.000 N 
ATOM      3  C2  UNL     1     154.378 159.658 170.434  0.00  0.00    +0.000 C 
ATOM      4  O1  UNL     1     153.701 159.834 171.494  0.00  0.00    +0.000 OA
ATOM      5  C3  UNL     1     153.501 159.855 169.247  0.00  0.00    +0.000 C 
ATOM      6  C4  UNL     1     154.178 159.631 167.966  0.00  0.00    +0.000 C 
ATOM      7  O2  UNL     1     153.468 159.268 166.987  0.00  0.00    +0.000 OA
ATOM      8  N2  UNL     1     155.584 159.749 167.585  0.00  0.00    +0.000 N 
ATOM      9  C11 UNL     1     156.671 159.297 168.352  0.00  0.00    +0.000 A 
ATOM     10  C12 UNL     1     157.806 159.036 167.635  0.00  0.00    +0.000 A 
ATOM     11  C13 UNL     1     158.959 158.563 168.229  0.00  0.00    +0.000 A 
ATOM     12  C14 UNL     1     158.988 158.339 169.607  0.00  0.00    +0.000 A 
ATOM     13  C15 UNL     1     157.842 158.606 170.317  0.00  0.00    +0.000 A 
ATOM     14  C16 UNL     1     156.710 159.072 169.727  0.00  0.00    +0.000 A 
ENDROOT
BRANCH   8  15
ATOM     15  C5  UNL     1     155.857 160.397 166.371  0.00  0.00    +0.000 A 
ATOM     16  C6  UNL     1     155.826 161.801 166.437  0.00  0.00    +0.000 A 
ATOM     17  C7  UNL     1     156.030 162.589 165.327  0.00  0.00    +0.000 A 
ATOM     18  C8  UNL     1     156.275 162.006 164.125  0.00  0.00    +0.000 A 
ATOM     19  C9  UNL     1     156.313 160.641 164.016  0.00  0.00    +0.000 A 
ATOM     20  C10 UNL     1     156.101 159.838 165.165  0.00  0.00    +0.000 A 
ENDBRANCH   8  15
BRANCH   5  21
ATOM     21  C18 UNL     1     152.291 159.076 169.509  0.00  0.00    +0.000 A 
ATOM     22  C19 UNL     1     151.031 159.626 169.469  0.00  0.00    +0.000 A 
ATOM     23  C20 UNL     1     149.907 158.920 169.811  0.00  0.00    +0.000 A 
ATOM     24  C21 UNL     1     149.991 157.608 170.212  0.00  0.00    +0.000 A 
ATOM     25  C22 UNL     1     151.259 157.023 170.258  0.00  0.00    +0.000 A 
ATOM     26  C23 UNL     1     152.362 157.731 169.918  0.00  0.00    +0.000 A 
ENDBRANCH   5  21
BRANCH  11  27
ATOM     27  C17 UNL     1     160.193 158.318 167.462  0.00  0.00    +0.000 C 
ATOM     28  F1  UNL     1     160.020 157.486 166.395  0.00  0.00    +0.000 F 
ATOM     29  F2  UNL     1     161.143 157.716 168.283  0.00  0.00    +0.000 F 
ATOM     30  F3  UNL     1     160.737 159.543 167.093  0.00  0.00    +0.000 F 
ENDBRANCH  11  27
TORSDOF 3
ENDMDL
MODEL 2
REMARK VINA RESULT:      -6.6     18.916     21.750
REMARK  Name = ./3D_structures\o63_MMV1782208_3D.pdb
REMARK  4 active torsions:
REMARK  status: ('A' for Active; 'I' for Inactive)
REMARK    1  A    between atoms: C1_1  and  N1_2
REMARK    2  A    between atoms: C3_5  and  C18_25
REMARK    3  A    between atoms: N2_8  and  C5_9
REMARK    4  A    between atoms: C13_17  and  C17_21
REMARK                            x       y       z     vdW  Elec       q    Type
REMARK                         _______ _______ _______ _____ _____    ______ ____
ROOT
ATOM      1  C1  UNL     1     167.527 140.408 162.157  0.00  0.00    +0.000 C 
ATOM      2  N1  UNL     1     166.594 140.726 163.246  0.00  0.00    +0.000 N 
ATOM      3  C2  UNL     1     167.112 141.485 164.278  0.00  0.00    +0.000 C 
ATOM      4  O1  UNL     1     168.346 141.760 164.157  0.00  0.00    +0.000 OA
ATOM      5  C3  UNL     1     166.588 142.095 165.532  0.00  0.00    +0.000 C 
ATOM      6  C4  UNL     1     165.177 141.799 165.790  0.00  0.00    +0.000 C 
ATOM      7  O2  UNL     1     164.789 141.806 166.993  0.00  0.00    +0.000 OA
ATOM      8  N2  UNL     1     164.076 141.479 164.883  0.00  0.00    +0.000 N 
ATOM      9  C11 UNL     1     164.162 140.606 163.785  0.00  0.00    +0.000 A 
ATOM     10  C12 UNL     1     162.969 140.059 163.397  0.00  0.00    +0.000 A 
ATOM     11  C13 UNL     1     162.876 139.164 162.351  0.00  0.00    +0.000 A 
ATOM     12  C14 UNL     1     164.026 138.793 161.650  0.00  0.00    +0.000 A 
ATOM     13  C15 UNL     1     165.218 139.349 162.050  0.00  0.00    +0.000 A 
ATOM     14  C16 UNL     1     165.303 140.231 163.079  0.00  0.00    +0.000 A 
ENDROOT
BRANCH   8  15
ATOM     15  C5  UNL     1     162.855 142.127 165.118  0.00  0.00    +0.000 A 
ATOM     16  C6  UNL     1     162.764 143.420 164.574  0.00  0.00    +0.000 A 
ATOM     17  C7  UNL     1     161.650 144.209 164.749  0.00  0.00    +0.000 A 
ATOM     18  C8  UNL     1     160.596 143.735 165.462  0.00  0.00    +0.000 A 
ATOM     19  C9  UNL     1     160.643 142.481 166.011  0.00  0.00    +0.000 A 
ATOM     20  C10 UNL     1     161.795 141.676 165.825  0.00  0.00    +0.000 A 
ENDBRANCH   8  15
BRANCH   5  21
ATOM     21  C18 UNL     1     167.548 141.744 166.579  0.00  0.00    +0.000 A 
ATOM     22  C19 UNL     1     167.774 140.446 166.975  0.00  0.00    +0.000 A 
ATOM     23  C20 UNL     1     168.599 140.127 168.022  0.00  0.00    +0.000 A 
ATOM     24  C21 UNL     1     169.250 141.107 168.732  0.00  0.00    +0.000 A 
ATOM     25  C22 UNL     1     169.041 142.435 168.349  0.00  0.00    +0.000 A 
ATOM     26  C23 UNL     1     168.223 142.737 167.314  0.00  0.00    +0.000 A 
ENDBRANCH   5  21
BRANCH  11  27
ATOM     27  C17 UNL     1     161.586 138.604 161.909  0.00  0.00    +0.000 C 
ATOM     28  F1  UNL     1     161.399 137.304 162.275  0.00  0.00    +0.000 F 
ATOM     29  F2  UNL     1     161.512 138.639 160.519  0.00  0.00    +0.000 F 
ATOM     30  F3  UNL     1     160.565 139.432 162.361  0.00  0.00    +0.000 F 
ENDBRANCH  11  27
TORSDOF 3
ENDMDL
MODEL 3
REMARK VINA RESULT:      -6.5      3.901      6.854
REMARK  Name = ./3D_structures\o63_MMV1782208_3D.pdb
REMARK  4 active torsions:
REMARK  status: ('A' for Active; 'I' for Inactive)
REMARK    1  A    between atoms: C1_1  and  N1_2
REMARK    2  A    between atoms: C3_5  and  C18_25
REMARK    3  A    between atoms: N2_8  and  C5_9
REMARK    4  A    between atoms: C13_17  and  C17_21
REMARK                            x       y       z     vdW  Elec       q    Type
REMARK                         _______ _______ _______ _____ _____    ______ ____
ROOT
ATOM      1  C1  UNL     1     162.607 158.488 166.539  0.00  0.00    +0.000 C 
ATOM      2  N1  UNL     1     161.178 158.650 166.840  0.00  0.00    +0.000 N 
ATOM      3  C2  UNL     1     160.343 157.675 166.327  0.00  0.00    +0.000 C 
ATOM      4  O1  UNL     1     160.933 156.798 165.622  0.00  0.00    +0.000 OA
ATOM      5  C3  UNL     1     158.888 157.364 166.391  0.00  0.00    +0.000 C 
ATOM      6  C4  UNL     1     158.105 158.343 167.149  0.00  0.00    +0.000 C 
ATOM      7  O2  UNL     1     156.885 158.474 166.848  0.00  0.00    +0.000 OA
ATOM      8  N2  UNL     1     158.481 159.245 168.237  0.00  0.00    +0.000 N 
ATOM      9  C11 UNL     1     159.663 160.002 168.288  0.00  0.00    +0.000 A 
ATOM     10  C12 UNL     1     159.594 161.115 169.080  0.00  0.00    +0.000 A 
ATOM     11  C13 UNL     1     160.658 161.982 169.224  0.00  0.00    +0.000 A 
ATOM     12  C14 UNL     1     161.856 161.730 168.550  0.00  0.00    +0.000 A 
ATOM     13  C15 UNL     1     161.912 160.608 167.759  0.00  0.00    +0.000 A 
ATOM     14  C16 UNL     1     160.862 159.758 167.620  0.00  0.00    +0.000 A 
ENDROOT
BRANCH   8  15
ATOM     15  C5  UNL     1     157.597 159.325 169.323  0.00  0.00    +0.000 A 
ATOM     16  C6  UNL     1     157.894 158.452 170.385  0.00  0.00    +0.000 A 
ATOM     17  C7  UNL     1     157.104 158.374 171.509  0.00  0.00    +0.000 A 
ATOM     18  C8  UNL     1     156.003 159.163 171.612  0.00  0.00    +0.000 A 
ATOM     19  C9  UNL     1     155.676 160.027 170.601  0.00  0.00    +0.000 A 
ATOM     20  C10 UNL     1     156.497 160.100 169.446  0.00  0.00    +0.000 A 
ENDBRANCH   8  15
BRANCH   5  21
ATOM     21  C18 UNL     1     158.474 157.097 165.014  0.00  0.00    +0.000 A 
ATOM     22  C19 UNL     1     157.974 155.881 164.611  0.00  0.00    +0.000 A 
ATOM     23  C20 UNL     1     157.679 155.601 163.302  0.00  0.00    +0.000 A 
ATOM     24  C21 UNL     1     157.871 156.542 162.318  0.00  0.00    +0.000 A 
ATOM     25  C22 UNL     1     158.376 157.788 162.700  0.00  0.00    +0.000 A 
ATOM     26  C23 UNL     1     158.663 158.051 163.997  0.00  0.00    +0.000 A 
ENDBRANCH   5  21
BRANCH  11  27
ATOM     27  C17 UNL     1     160.596 163.161 170.107  0.00  0.00    +0.000 C 
ATOM     28  F1  UNL     1     160.593 164.348 169.437  0.00  0.00    +0.000 F 
ATOM     29  F2  UNL     1     161.710 163.180 170.942  0.00  0.00    +0.000 F 
ATOM     30  F3  UNL     1     159.498 163.027 170.949  0.00  0.00    +0.000 F 
ENDBRANCH  11  27
TORSDOF 3
ENDMDL
MODEL 4
REMARK VINA RESULT:      -6.5      4.108      7.530
REMARK  Name = ./3D_structures\o63_MMV1782208_3D.pdb
REMARK  4 active torsions:
REMARK  status: ('A' for Active; 'I' for Inactive)
REMARK    1  A    between atoms: C1_1  and  N1_2
REMARK    2  A    between atoms: C3_5  and  C18_25
REMARK    3  A    between atoms: N2_8  and  C5_9
REMARK    4  A    between atoms: C13_17  and  C17_21
REMARK                            x       y       z     vdW  Elec       q    Type
REMARK                         _______ _______ _______ _____ _____    ______ ____
ROOT
ATOM      1  C1  UNL     1     156.914 160.301 163.398  0.00  0.00    +0.000 C 
ATOM      2  N1  UNL     1     156.911 159.376 164.539  0.00  0.00    +0.000 N 
ATOM      3  C2  UNL     1     157.964 158.482 164.590  0.00  0.00    +0.000 C 
ATOM      4  O1  UNL     1     158.764 158.559 163.606  0.00  0.00    +0.000 OA
ATOM      5  C3  UNL     1     158.431 157.423 165.527  0.00  0.00    +0.000 C 
ATOM      6  C4  UNL     1     157.550 157.221 166.681  0.00  0.00    +0.000 C 
ATOM      7  O2  UNL     1     157.548 156.080 167.221  0.00  0.00    +0.000 OA
ATOM      8  N2  UNL     1     156.626 158.129 167.358  0.00  0.00    +0.000 N 
ATOM      9  C11 UNL     1     155.747 159.016 166.715  0.00  0.00    +0.000 A 
ATOM     10  C12 UNL     1     154.656 159.377 167.459  0.00  0.00    +0.000 A 
ATOM     11  C13 UNL     1     153.681 160.224 166.971  0.00  0.00    +0.000 A 
ATOM     12  C14 UNL     1     153.795 160.742 165.678  0.00  0.00    +0.000 A 
ATOM     13  C15 UNL     1     154.895 160.372 164.943  0.00  0.00    +0.000 A 
ATOM     14  C16 UNL     1     155.852 159.539 165.428  0.00  0.00    +0.000 A 
ENDROOT
BRANCH   8  15
ATOM     15  C5  UNL     1     156.654 158.126 168.761  0.00  0.00    +0.000 A 
ATOM     16  C6  UNL     1     157.678 158.905 169.327  0.00  0.00    +0.000 A 
ATOM     17  C7  UNL     1     157.872 158.978 170.688  0.00  0.00    +0.000 A 
ATOM     18  C8  UNL     1     157.053 158.287 171.522  0.00  0.00    +0.000 A 
ATOM     19  C9  UNL     1     156.042 157.515 171.012  0.00  0.00    +0.000 A 
ATOM     20  C10 UNL     1     155.851 157.446 169.609  0.00  0.00    +0.000 A 
ENDBRANCH   8  15
BRANCH   5  21
ATOM     21  C18 UNL     1     158.725 156.254 164.697  0.00  0.00    +0.000 A 
ATOM     22  C19 UNL     1     157.760 155.603 163.964  0.00  0.00    +0.000 A 
ATOM     23  C20 UNL     1     158.016 154.452 163.266  0.00  0.00    +0.000 A 
ATOM     24  C21 UNL     1     159.271 153.889 163.266  0.00  0.00    +0.000 A 
ATOM     25  C22 UNL     1     160.270 154.532 164.001  0.00  0.00    +0.000 A 
ATOM     26  C23 UNL     1     160.004 155.669 164.687  0.00  0.00    +0.000 A 
ENDBRANCH   5  21
BRANCH  11  27
ATOM     27  C17 UNL     1     152.526 160.642 167.785  0.00  0.00    +0.000 C 
ATOM     28  F1  UNL     1     152.787 161.702 168.603  0.00  0.00    +0.000 F 
ATOM     29  F2  UNL     1     152.131 159.593 168.611  0.00  0.00    +0.000 F 
ATOM     30  F3  UNL     1     151.450 160.881 166.938  0.00  0.00    +0.000 F 
ENDBRANCH  11  27
TORSDOF 3
ENDMDL
MODEL 5
REMARK VINA RESULT:      -6.4      5.048      6.435
REMARK  Name = ./3D_structures\o63_MMV1782208_3D.pdb
REMARK  4 active torsions:
REMARK  status: ('A' for Active; 'I' for Inactive)
REMARK    1  A    between atoms: C1_1  and  N1_2
REMARK    2  A    between atoms: C3_5  and  C18_25
REMARK    3  A    between atoms: N2_8  and  C5_9
REMARK    4  A    between atoms: C13_17  and  C17_21
REMARK                            x       y       z     vdW  Elec       q    Type
REMARK                         _______ _______ _______ _____ _____    ______ ____
ROOT
ATOM      1  C1  UNL     1     150.774 162.300 169.808  0.00  0.00    +0.000 C 
ATOM      2  N1  UNL     1     151.002 162.809 168.449  0.00  0.00    +0.000 N 
ATOM      3  C2  UNL     1     150.319 163.963 168.118  0.00  0.00    +0.000 C 
ATOM      4  O1  UNL     1     149.547 164.394 169.030  0.00  0.00    +0.000 OA
ATOM      5  C3  UNL     1     150.251 164.872 166.940  0.00  0.00    +0.000 C 
ATOM      6  C4  UNL     1     151.075 164.439 165.809  0.00  0.00    +0.000 C 
ATOM      7  O2  UNL     1     150.717 164.801 164.653  0.00  0.00    +0.000 OA
ATOM      8  N2  UNL     1     152.290 163.627 165.755  0.00  0.00    +0.000 N 
ATOM      9  C11 UNL     1     152.511 162.453 166.495  0.00  0.00    +0.000 A 
ATOM     10  C12 UNL     1     153.431 161.600 165.949  0.00  0.00    +0.000 A 
ATOM     11  C13 UNL     1     153.751 160.392 166.534  0.00  0.00    +0.000 A 
ATOM     12  C14 UNL     1     153.128 160.010 167.725  0.00  0.00    +0.000 A 
ATOM     13  C15 UNL     1     152.206 160.875 168.262  0.00  0.00    +0.000 A 
ATOM     14  C16 UNL     1     151.895 162.064 167.683  0.00  0.00    +0.000 A 
ENDROOT
BRANCH   8  15
ATOM     15  C5  UNL     1     153.320 164.087 164.922  0.00  0.00    +0.000 A 
ATOM     16  C6  UNL     1     154.149 165.064 165.499  0.00  0.00    +0.000 A 
ATOM     17  C7  UNL     1     155.181 165.650 164.803  0.00  0.00    +0.000 A 
ATOM     18  C8  UNL     1     155.422 165.279 163.519  0.00  0.00    +0.000 A 
ATOM     19  C9  UNL     1     154.637 164.332 162.917  0.00  0.00    +0.000 A 
ATOM     20  C10 UNL     1     153.576 163.733 163.642  0.00  0.00    +0.000 A 
ENDBRANCH   8  15
BRANCH   5  21
ATOM     21  C18 UNL     1     148.827 165.092 166.685  0.00  0.00    +0.000 A 
ATOM     22  C19 UNL     1     147.902 164.074 166.711  0.00  0.00    +0.000 A 
ATOM     23  C20 UNL     1     146.587 164.264 166.376  0.00  0.00    +0.000 A 
ATOM     24  C21 UNL     1     146.126 165.502 165.996  0.00  0.00    +0.000 A 
ATOM     25  C22 UNL     1     147.045 166.555 165.963  0.00  0.00    +0.000 A 
ATOM     26  C23 UNL     1     148.341 166.354 166.297  0.00  0.00    +0.000 A 
ENDBRANCH   5  21
BRANCH  11  27
ATOM     27  C17 UNL     1     154.770 159.491 165.967  0.00  0.00    +0.000 C 
ATOM     28  F1  UNL     1     155.262 159.907 164.765  0.00  0.00    +0.000 F 
ATOM     29  F2  UNL     1     154.215 158.232 165.753  0.00  0.00    +0.000 F 
ATOM     30  F3  UNL     1     155.773 159.304 166.911  0.00  0.00    +0.000 F 
ENDBRANCH  11  27
TORSDOF 3
ENDMDL
MODEL 6
REMARK VINA RESULT:      -6.4      2.700      5.944
REMARK  Name = ./3D_structures\o63_MMV1782208_3D.pdb
REMARK  4 active torsions:
REMARK  status: ('A' for Active; 'I' for Inactive)
REMARK    1  A    between atoms: C1_1  and  N1_2
REMARK    2  A    between atoms: C3_5  and  C18_25
REMARK    3  A    between atoms: N2_8  and  C5_9
REMARK    4  A    between atoms: C13_17  and  C17_21
REMARK                            x       y       z     vdW  Elec       q    Type
REMARK                         _______ _______ _______ _____ _____    ______ ____
ROOT
ATOM      1  C1  UNL     1     157.145 159.283 165.639  0.00  0.00    +0.000 C 
ATOM      2  N1  UNL     1     156.028 159.816 166.429  0.00  0.00    +0.000 N 
ATOM      3  C2  UNL     1     154.972 160.332 165.702  0.00  0.00    +0.000 C 
ATOM      4  O1  UNL     1     155.144 160.314 164.443  0.00  0.00    +0.000 OA
ATOM      5  C3  UNL     1     153.637 160.916 166.011  0.00  0.00    +0.000 C 
ATOM      6  C4  UNL     1     153.355 161.024 167.445  0.00  0.00    +0.000 C 
ATOM      7  O2  UNL     1     152.550 161.924 167.815  0.00  0.00    +0.000 OA
ATOM      8  N2  UNL     1     153.851 160.257 168.586  0.00  0.00    +0.000 N 
ATOM      9  C11 UNL     1     155.187 159.863 168.776  0.00  0.00    +0.000 A 
ATOM     10  C12 UNL     1     155.531 159.626 170.079  0.00  0.00    +0.000 A 
ATOM     11  C13 UNL     1     156.809 159.254 170.446  0.00  0.00    +0.000 A 
ATOM     12  C14 UNL     1     157.796 159.106 169.469  0.00  0.00    +0.000 A 
ATOM     13  C15 UNL     1     157.437 159.346 168.164  0.00  0.00    +0.000 A 
ATOM     14  C16 UNL     1     156.178 159.712 167.809  0.00  0.00    +0.000 A 
ENDROOT
BRANCH   8  15
ATOM     15  C5  UNL     1     152.903 159.860 169.541  0.00  0.00    +0.000 A 
ATOM     16  C6  UNL     1     152.289 158.623 169.278  0.00  0.00    +0.000 A 
ATOM     17  C7  UNL     1     151.307 158.108 170.092  0.00  0.00    +0.000 A 
ATOM     18  C8  UNL     1     150.912 158.802 171.191  0.00  0.00    +0.000 A 
ATOM     19  C9  UNL     1     151.483 160.013 171.483  0.00  0.00    +0.000 A 
ATOM     20  C10 UNL     1     152.494 160.535 170.638  0.00  0.00    +0.000 A 
ENDBRANCH   8  15
BRANCH   5  21
ATOM     21  C18 UNL     1     153.540 162.140 165.216  0.00  0.00    +0.000 A 
ATOM     22  C19 UNL     1     154.464 163.156 165.302  0.00  0.00    +0.000 A 
ATOM     23  C20 UNL     1     154.320 164.343 164.632  0.00  0.00    +0.000 A 
ATOM     24  C21 UNL     1     153.229 164.572 163.827  0.00  0.00    +0.000 A 
ATOM     25  C22 UNL     1     152.277 163.555 163.719  0.00  0.00    +0.000 A 
ATOM     26  C23 UNL     1     152.431 162.388 164.387  0.00  0.00    +0.000 A 
ENDBRANCH   5  21
BRANCH  11  27
ATOM     27  C17 UNL     1     157.170 158.962 171.844  0.00  0.00    +0.000 C 
ATOM     28  F1  UNL     1     156.282 158.146 172.481  0.00  0.00    +0.000 F 
ATOM     29  F2  UNL     1     157.212 160.147 172.574  0.00  0.00    +0.000 F 
ATOM     30  F3  UNL     1     158.465 158.458 171.872  0.00  0.00    +0.000 F 
ENDBRANCH  11  27
TORSDOF 3
ENDMDL
MODEL 7
REMARK VINA RESULT:      -6.4      3.505      4.904
REMARK  Name = ./3D_structures\o63_MMV1782208_3D.pdb
REMARK  4 active torsions:
REMARK  status: ('A' for Active; 'I' for Inactive)
REMARK    1  A    between atoms: C1_1  and  N1_2
REMARK    2  A    between atoms: C3_5  and  C18_25
REMARK    3  A    between atoms: N2_8  and  C5_9
REMARK    4  A    between atoms: C13_17  and  C17_21
REMARK                            x       y       z     vdW  Elec       q    Type
REMARK                         _______ _______ _______ _____ _____    ______ ____
ROOT
ATOM      1  C1  UNL     1     159.699 160.297 167.992  0.00  0.00    +0.000 C 
ATOM      2  N1  UNL     1     159.073 159.185 167.264  0.00  0.00    +0.000 N 
ATOM      3  C2  UNL     1     157.693 159.216 167.193  0.00  0.00    +0.000 C 
ATOM      4  O1  UNL     1     157.159 160.186 167.815  0.00  0.00    +0.000 OA
ATOM      5  C3  UNL     1     156.631 158.392 166.553  0.00  0.00    +0.000 C 
ATOM      6  C4  UNL     1     157.140 157.216 165.842  0.00  0.00    +0.000 C 
ATOM      7  O2  UNL     1     156.367 156.225 165.724  0.00  0.00    +0.000 OA
ATOM      8  N2  UNL     1     158.435 156.954 165.215  0.00  0.00    +0.000 N 
ATOM      9  C11 UNL     1     159.683 157.284 165.770  0.00  0.00    +0.000 A 
ATOM     10  C12 UNL     1     160.729 156.532 165.309  0.00  0.00    +0.000 A 
ATOM     11  C13 UNL     1     162.019 156.709 165.765  0.00  0.00    +0.000 A 
ATOM     12  C14 UNL     1     162.288 157.686 166.727  0.00  0.00    +0.000 A 
ATOM     13  C15 UNL     1     161.229 158.435 167.180  0.00  0.00    +0.000 A 
ATOM     14  C16 UNL     1     159.961 158.257 166.728  0.00  0.00    +0.000 A 
ENDROOT
BRANCH   8  15
ATOM     15  C5  UNL     1     158.412 156.356 163.947  0.00  0.00    +0.000 A 
ATOM     16  C6  UNL     1     158.256 157.255 162.878  0.00  0.00    +0.000 A 
ATOM     17  C7  UNL     1     158.172 156.830 161.572  0.00  0.00    +0.000 A 
ATOM     18  C8  UNL     1     158.247 155.502 161.291  0.00  0.00    +0.000 A 
ATOM     19  C9  UNL     1     158.398 154.592 162.303  0.00  0.00    +0.000 A 
ATOM     20  C10 UNL     1     158.483 155.040 163.646  0.00  0.00    +0.000 A 
ENDBRANCH   8  15
BRANCH   5  21
ATOM     21  C18 UNL     1     155.622 158.163 167.587  0.00  0.00    +0.000 A 
ATOM     22  C19 UNL     1     154.325 158.608 167.471  0.00  0.00    +0.000 A 
ATOM     23  C20 UNL     1     153.408 158.480 168.481  0.00  0.00    +0.000 A 
ATOM     24  C21 UNL     1     153.749 157.888 169.675  0.00  0.00    +0.000 A 
ATOM     25  C22 UNL     1     155.060 157.425 169.818  0.00  0.00    +0.000 A 
ATOM     26  C23 UNL     1     155.956 157.558 168.813  0.00  0.00    +0.000 A 
ENDBRANCH   5  21
BRANCH  11  27
ATOM     27  C17 UNL     1     163.151 155.923 165.241  0.00  0.00    +0.000 C 
ATOM     28  F1  UNL     1     163.295 156.005 163.888  0.00  0.00    +0.000 F 
ATOM     29  F2  UNL     1     162.964 154.576 165.539  0.00  0.00    +0.000 F 
ATOM     30  F3  UNL     1     164.304 156.301 165.919  0.00  0.00    +0.000 F 
ENDBRANCH  11  27
TORSDOF 3
ENDMDL
MODEL 8
REMARK VINA RESULT:      -6.3      4.027      7.239
REMARK  Name = ./3D_structures\o63_MMV1782208_3D.pdb
REMARK  4 active torsions:
REMARK  status: ('A' for Active; 'I' for Inactive)
REMARK    1  A    between atoms: C1_1  and  N1_2
REMARK    2  A    between atoms: C3_5  and  C18_25
REMARK    3  A    between atoms: N2_8  and  C5_9
REMARK    4  A    between atoms: C13_17  and  C17_21
REMARK                            x       y       z     vdW  Elec       q    Type
REMARK                         _______ _______ _______ _____ _____    ______ ____
ROOT
ATOM      1  C1  UNL     1     154.223 160.983 165.014  0.00  0.00    +0.000 C 
ATOM      2  N1  UNL     1     154.754 160.344 166.226  0.00  0.00    +0.000 N 
ATOM      3  C2  UNL     1     156.025 159.813 166.116  0.00  0.00    +0.000 C 
ATOM      4  O1  UNL     1     156.535 159.913 164.957  0.00  0.00    +0.000 OA
ATOM      5  C3  UNL     1     156.991 159.140 167.028  0.00  0.00    +0.000 C 
ATOM      6  C4  UNL     1     156.481 158.935 168.386  0.00  0.00    +0.000 C 
ATOM      7  O2  UNL     1     156.959 157.973 169.050  0.00  0.00    +0.000 OA
ATOM      8  N2  UNL     1     155.475 159.662 169.158  0.00  0.00    +0.000 N 
ATOM      9  C11 UNL     1     154.244 160.117 168.656  0.00  0.00    +0.000 A 
ATOM     10  C12 UNL     1     153.274 160.298 169.604  0.00  0.00    +0.000 A 
ATOM     11  C13 UNL     1     152.000 160.719 169.281  0.00  0.00    +0.000 A 
ATOM     12  C14 UNL     1     151.670 160.977 167.948  0.00  0.00    +0.000 A 
ATOM     13  C15 UNL     1     152.654 160.792 167.006  0.00  0.00    +0.000 A 
ATOM     14  C16 UNL     1     153.906 160.378 167.330  0.00  0.00    +0.000 A 
ENDROOT
BRANCH   8  15
ATOM     15  C5  UNL     1     155.791 159.950 170.494  0.00  0.00    +0.000 A 
ATOM     16  C6  UNL     1     156.606 161.082 170.671  0.00  0.00    +0.000 A 
ATOM     17  C7  UNL     1     157.044 161.479 171.914  0.00  0.00    +0.000 A 
ATOM     18  C8  UNL     1     156.680 160.769 173.014  0.00  0.00    +0.000 A 
ATOM     19  C9  UNL     1     155.887 159.659 172.885  0.00  0.00    +0.000 A 
ATOM     20  C10 UNL     1     155.442 159.257 171.600  0.00  0.00    +0.000 A 
ENDBRANCH   8  15
BRANCH   5  21
ATOM     21  C18 UNL     1     157.468 157.960 166.306  0.00  0.00    +0.000 A 
ATOM     22  C19 UNL     1     156.625 156.957 165.886  0.00  0.00    +0.000 A 
ATOM     23  C20 UNL     1     157.084 155.806 165.299  0.00  0.00    +0.000 A 
ATOM     24  C21 UNL     1     158.429 155.603 165.097  0.00  0.00    +0.000 A 
ATOM     25  C22 UNL     1     159.306 156.608 165.512  0.00  0.00    +0.000 A 
ATOM     26  C23 UNL     1     158.841 157.739 166.092  0.00  0.00    +0.000 A 
ENDBRANCH   5  21
BRANCH  11  27
ATOM     27  C17 UNL     1     150.966 160.950 170.306  0.00  0.00    +0.000 C 
ATOM     28  F1  UNL     1     151.420 161.626 171.400  0.00  0.00    +0.000 F 
ATOM     29  F2  UNL     1     150.484 159.728 170.769  0.00  0.00    +0.000 F 
ATOM     30  F3  UNL     1     149.881 161.580 169.708  0.00  0.00    +0.000 F 
ENDBRANCH  11  27
TORSDOF 3
ENDMDL
MODEL 9
REMARK VINA RESULT:      -6.3      3.773      5.559
REMARK  Name = ./3D_structures\o63_MMV1782208_3D.pdb
REMARK  4 active torsions:
REMARK  status: ('A' for Active; 'I' for Inactive)
REMARK    1  A    between atoms: C1_1  and  N1_2
REMARK    2  A    between atoms: C3_5  and  C18_25
REMARK    3  A    between atoms: N2_8  and  C5_9
REMARK    4  A    between atoms: C13_17  and  C17_21
REMARK                            x       y       z     vdW  Elec       q    Type
REMARK                         _______ _______ _______ _____ _____    ______ ____
ROOT
ATOM      1  C1  UNL     1     161.429 160.990 168.040  0.00  0.00    +0.000 C 
ATOM      2  N1  UNL     1     160.570 159.839 167.733  0.00  0.00    +0.000 N 
ATOM      3  C2  UNL     1     159.233 159.985 168.053  0.00  0.00    +0.000 C 
ATOM      4  O1  UNL     1     158.948 161.087 168.616  0.00  0.00    +0.000 OA
ATOM      5  C3  UNL     1     157.996 159.171 167.899  0.00  0.00    +0.000 C 
ATOM      6  C4  UNL     1     158.223 157.855 167.296  0.00  0.00    +0.000 C 
ATOM      7  O2  UNL     1     157.408 156.933 167.583  0.00  0.00    +0.000 OA
ATOM      8  N2  UNL     1     159.262 157.378 166.385  0.00  0.00    +0.000 N 
ATOM      9  C11 UNL     1     160.631 157.676 166.492  0.00  0.00    +0.000 A 
ATOM     10  C12 UNL     1     161.461 156.766 165.896  0.00  0.00    +0.000 A 
ATOM     11  C13 UNL     1     162.835 156.894 165.927  0.00  0.00    +0.000 A 
ATOM     12  C14 UNL     1     163.417 157.983 166.581  0.00  0.00    +0.000 A 
ATOM     13  C15 UNL     1     162.572 158.890 167.175  0.00  0.00    +0.000 A 
ATOM     14  C16 UNL     1     161.220 158.759 167.141  0.00  0.00    +0.000 A 
ENDROOT
BRANCH   8  15
ATOM     15  C5  UNL     1     158.840 156.590 165.304  0.00  0.00    +0.000 A 
ATOM     16  C6  UNL     1     158.625 157.300 164.110  0.00  0.00    +0.000 A 
ATOM     17  C7  UNL     1     158.170 156.685 162.966  0.00  0.00    +0.000 A 
ATOM     18  C8  UNL     1     157.921 155.349 162.975  0.00  0.00    +0.000 A 
ATOM     19  C9  UNL     1     158.116 154.620 164.117  0.00  0.00    +0.000 A 
ATOM     20  C10 UNL     1     158.585 155.263 165.291  0.00  0.00    +0.000 A 
ENDBRANCH   8  15
BRANCH   5  21
ATOM     21  C18 UNL     1     157.330 159.204 169.201  0.00  0.00    +0.000 A 
ATOM     22  C19 UNL     1     157.926 158.741 170.352  0.00  0.00    +0.000 A 
ATOM     23  C20 UNL     1     157.266 158.682 171.552  0.00  0.00    +0.000 A 
ATOM     24  C21 UNL     1     155.958 159.093 171.660  0.00  0.00    +0.000 A 
ATOM     25  C22 UNL     1     155.330 159.570 170.507  0.00  0.00    +0.000 A 
ATOM     26  C23 UNL     1     155.993 159.623 169.328  0.00  0.00    +0.000 A 
ENDBRANCH   5  21
BRANCH  11  27
ATOM     27  C17 UNL     1     163.727 155.934 165.253  0.00  0.00    +0.000 C 
ATOM     28  F1  UNL     1     165.053 156.210 165.417  0.00  0.00    +0.000 F 
ATOM     29  F2  UNL     1     163.485 155.953 163.882  0.00  0.00    +0.000 F 
ATOM     30  F3  UNL     1     163.399 154.651 165.675  0.00  0.00    +0.000 F 
ENDBRANCH  11  27
TORSDOF 3
ENDMDL
