MODEL 1
REMARK VINA RESULT:      -4.0      0.000      0.000
REMARK  Name = ./3D_structures\o76_MMV1634361_3D.pdb
REMARK  3 active torsions:
REMARK  status: ('A' for Active; 'I' for Inactive)
REMARK    1  A    between atoms: C1_2  and  O2_3
REMARK    2  A    between atoms: C1_2  and  C2_4
REMARK    3  A    between atoms: C3_5  and  N1_6
REMARK                            x       y       z     vdW  Elec       q    Type
REMARK                         _______ _______ _______ _____ _____    ______ ____
ROOT
ATOM      1  C2  UNL     1     162.015 144.510 171.841  0.00  0.00    +0.000 C 
ATOM      2  C3  UNL     1     161.983 143.818 170.521  0.00  0.00    +0.000 C 
ATOM      3  C4  UNL     1     160.584 144.040 169.962  0.00  0.00    +0.000 C 
ATOM      4  C5  UNL     1     160.290 145.444 170.434  0.00  0.00    +0.000 C 
ATOM      5  C6  UNL     1     160.858 145.492 171.831  0.00  0.00    +0.000 C 
ENDROOT
BRANCH   2   6
ATOM      6  N1  UNL     1     162.340 142.433 170.561  0.00  0.00    +0.000 NA
ATOM      7  H4  UNL     1     162.621 142.165 171.551  0.00  0.00    +0.000 HD
ATOM      8  H5  UNL     1     163.199 142.230 169.968  0.00  0.00    +0.000 HD
ENDBRANCH   2   6
BRANCH   1  10
ATOM      9  O1  UNL     1     163.027 143.426 173.710  0.00  0.00    +0.000 OA
ATOM     10  C1  UNL     1     162.001 143.617 173.001  0.00  0.00    +0.000 C 
BRANCH  10  11
ATOM     11  O2  UNL     1     160.853 142.932 173.383  0.00  0.00    +0.000 OA
ATOM     12  H1  UNL     1     160.122 142.673 172.703  0.00  0.00    +0.000 HD
ENDBRANCH  10  11
ENDBRANCH   1  10
TORSDOF 3
ENDMDL
MODEL 2
REMARK VINA RESULT:      -3.9      1.883      2.276
REMARK  Name = ./3D_structures\o76_MMV1634361_3D.pdb
REMARK  3 active torsions:
REMARK  status: ('A' for Active; 'I' for Inactive)
REMARK    1  A    between atoms: C1_2  and  O2_3
REMARK    2  A    between atoms: C1_2  and  C2_4
REMARK    3  A    between atoms: C3_5  and  N1_6
REMARK                            x       y       z     vdW  Elec       q    Type
REMARK                         _______ _______ _______ _____ _____    ______ ____
ROOT
ATOM      1  C2  UNL     1     161.026 145.176 172.240  0.00  0.00    +0.000 C 
ATOM      2  C3  UNL     1     162.090 146.220 172.219  0.00  0.00    +0.000 C 
ATOM      3  C4  UNL     1     162.127 146.756 170.794  0.00  0.00    +0.000 C 
ATOM      4  C5  UNL     1     160.665 146.720 170.420  0.00  0.00    +0.000 C 
ATOM      5  C6  UNL     1     160.160 145.431 171.021  0.00  0.00    +0.000 C 
ENDROOT
BRANCH   2   6
ATOM      6  N1  UNL     1     163.374 145.778 172.667  0.00  0.00    +0.000 NA
ATOM      7  H4  UNL     1     164.120 146.088 171.975  0.00  0.00    +0.000 HD
ATOM      8  H5  UNL     1     163.442 144.717 172.684  0.00  0.00    +0.000 HD
ENDBRANCH   2   6
BRANCH   1  10
ATOM      9  O1  UNL     1     162.338 143.337 171.474  0.00  0.00    +0.000 OA
ATOM     10  C1  UNL     1     161.521 143.800 172.316  0.00  0.00    +0.000 C 
BRANCH  10  11
ATOM     11  O2  UNL     1     161.116 142.931 173.323  0.00  0.00    +0.000 OA
ATOM     12  H1  UNL     1     161.278 141.915 173.261  0.00  0.00    +0.000 HD
ENDBRANCH  10  11
ENDBRANCH   1  10
TORSDOF 3
ENDMDL
MODEL 3
REMARK VINA RESULT:      -3.8     15.110     16.127
REMARK  Name = ./3D_structures\o76_MMV1634361_3D.pdb
REMARK  3 active torsions:
REMARK  status: ('A' for Active; 'I' for Inactive)
REMARK    1  A    between atoms: C1_2  and  O2_3
REMARK    2  A    between atoms: C1_2  and  C2_4
REMARK    3  A    between atoms: C3_5  and  N1_6
REMARK                            x       y       z     vdW  Elec       q    Type
REMARK                         _______ _______ _______ _____ _____    ______ ____
ROOT
ATOM      1  C2  UNL     1     147.958 151.973 167.253  0.00  0.00    +0.000 C 
ATOM      2  C3  UNL     1     146.870 151.027 167.632  0.00  0.00    +0.000 C 
ATOM      3  C4  UNL     1     146.700 151.160 169.140  0.00  0.00    +0.000 C 
ATOM      4  C5  UNL     1     146.944 152.637 169.341  0.00  0.00    +0.000 C 
ATOM      5  C6  UNL     1     148.081 152.956 168.402  0.00  0.00    +0.000 C 
ENDROOT
BRANCH   2   6
ATOM      6  N1  UNL     1     147.084 149.672 167.227  0.00  0.00    +0.000 NA
ATOM      7  H4  UNL     1     146.838 149.017 168.028  0.00  0.00    +0.000 HD
ATOM      8  H5  UNL     1     148.110 149.479 167.022  0.00  0.00    +0.000 HD
ENDBRANCH   2   6
BRANCH   1  10
ATOM      9  O1  UNL     1     149.354 150.610 165.879  0.00  0.00    +0.000 OA
ATOM     10  C1  UNL     1     149.229 151.335 166.905  0.00  0.00    +0.000 C 
BRANCH  10  11
ATOM     11  O2  UNL     1     150.368 151.495 167.687  0.00  0.00    +0.000 OA
ATOM     12  H1  UNL     1     150.390 151.216 168.679  0.00  0.00    +0.000 HD
ENDBRANCH  10  11
ENDBRANCH   1  10
TORSDOF 3
ENDMDL
MODEL 4
REMARK VINA RESULT:      -3.7      2.235      3.202
REMARK  Name = ./3D_structures\o76_MMV1634361_3D.pdb
REMARK  3 active torsions:
REMARK  status: ('A' for Active; 'I' for Inactive)
REMARK    1  A    between atoms: C1_2  and  O2_3
REMARK    2  A    between atoms: C1_2  and  C2_4
REMARK    3  A    between atoms: C3_5  and  N1_6
REMARK                            x       y       z     vdW  Elec       q    Type
REMARK                         _______ _______ _______ _____ _____    ______ ____
ROOT
ATOM      1  C2  UNL     1     161.021 145.116 171.894  0.00  0.00    +0.000 C 
ATOM      2  C3  UNL     1     161.094 144.531 173.262  0.00  0.00    +0.000 C 
ATOM      3  C4  UNL     1     162.348 145.112 173.903  0.00  0.00    +0.000 C 
ATOM      4  C5  UNL     1     162.349 146.515 173.345  0.00  0.00    +0.000 C 
ATOM      5  C6  UNL     1     161.912 146.344 171.911  0.00  0.00    +0.000 C 
ENDROOT
BRANCH   2   6
ATOM      6  N1  UNL     1     161.075 143.101 173.306  0.00  0.00    +0.000 NA
ATOM      7  H4  UNL     1     160.080 142.753 173.165  0.00  0.00    +0.000 HD
ATOM      8  H5  UNL     1     161.361 142.732 174.262  0.00  0.00    +0.000 HD
ENDBRANCH   2   6
BRANCH   1  10
ATOM      9  O1  UNL     1     160.521 143.905 169.899  0.00  0.00    +0.000 OA
ATOM     10  C1  UNL     1     161.347 144.185 170.812  0.00  0.00    +0.000 C 
BRANCH  10  11
ATOM     11  O2  UNL     1     162.586 143.559 170.733  0.00  0.00    +0.000 OA
ATOM     12  H1  UNL     1     162.994 143.056 171.535  0.00  0.00    +0.000 HD
ENDBRANCH  10  11
ENDBRANCH   1  10
TORSDOF 3
ENDMDL
MODEL 5
REMARK VINA RESULT:      -3.6     27.030     27.986
REMARK  Name = ./3D_structures\o76_MMV1634361_3D.pdb
REMARK  3 active torsions:
REMARK  status: ('A' for Active; 'I' for Inactive)
REMARK    1  A    between atoms: C1_2  and  O2_3
REMARK    2  A    between atoms: C1_2  and  C2_4
REMARK    3  A    between atoms: C3_5  and  N1_6
REMARK                            x       y       z     vdW  Elec       q    Type
REMARK                         _______ _______ _______ _____ _____    ______ ____
ROOT
ATOM      1  C2  UNL     1     145.138 165.413 166.398  0.00  0.00    +0.000 C 
ATOM      2  C3  UNL     1     143.747 165.124 165.947  0.00  0.00    +0.000 C 
ATOM      3  C4  UNL     1     143.857 163.983 164.945  0.00  0.00    +0.000 C 
ATOM      4  C5  UNL     1     144.973 163.161 165.544  0.00  0.00    +0.000 C 
ATOM      5  C6  UNL     1     145.959 164.186 166.047  0.00  0.00    +0.000 C 
ENDROOT
BRANCH   2   6
ATOM      6  N1  UNL     1     143.043 166.249 165.415  0.00  0.00    +0.000 NA
ATOM      7  H4  UNL     1     143.510 166.570 164.514  0.00  0.00    +0.000 HD
ATOM      8  H5  UNL     1     143.095 167.090 166.064  0.00  0.00    +0.000 HD
ENDBRANCH   2   6
BRANCH   1  10
ATOM      9  O1  UNL     1     145.249 167.787 166.187  0.00  0.00    +0.000 OA
ATOM     10  C1  UNL     1     145.707 166.655 165.871  0.00  0.00    +0.000 C 
BRANCH  10  11
ATOM     11  O2  UNL     1     146.785 166.652 164.992  0.00  0.00    +0.000 OA
ATOM     12  H1  UNL     1     147.381 167.482 164.859  0.00  0.00    +0.000 HD
ENDBRANCH  10  11
ENDBRANCH   1  10
TORSDOF 3
ENDMDL
MODEL 6
REMARK VINA RESULT:      -3.6     15.534     16.692
REMARK  Name = ./3D_structures\o76_MMV1634361_3D.pdb
REMARK  3 active torsions:
REMARK  status: ('A' for Active; 'I' for Inactive)
REMARK    1  A    between atoms: C1_2  and  O2_3
REMARK    2  A    between atoms: C1_2  and  C2_4
REMARK    3  A    between atoms: C3_5  and  N1_6
REMARK                            x       y       z     vdW  Elec       q    Type
REMARK                         _______ _______ _______ _____ _____    ______ ____
ROOT
ATOM      1  C2  UNL     1     147.847 151.633 167.264  0.00  0.00    +0.000 C 
ATOM      2  C3  UNL     1     147.118 152.616 166.413  0.00  0.00    +0.000 C 
ATOM      3  C4  UNL     1     146.094 151.812 165.622  0.00  0.00    +0.000 C 
ATOM      4  C5  UNL     1     145.683 150.770 166.634  0.00  0.00    +0.000 C 
ATOM      5  C6  UNL     1     146.970 150.397 167.327  0.00  0.00    +0.000 C 
ENDROOT
BRANCH   2   6
ATOM      6  N1  UNL     1     147.952 153.414 165.568  0.00  0.00    +0.000 NA
ATOM      7  H4  UNL     1     148.884 153.591 166.050  0.00  0.00    +0.000 HD
ATOM      8  H5  UNL     1     147.540 154.381 165.407  0.00  0.00    +0.000 HD
ENDBRANCH   2   6
BRANCH   1  10
ATOM      9  O1  UNL     1     149.465 150.523 165.907  0.00  0.00    +0.000 OA
ATOM     10  C1  UNL     1     149.216 151.345 166.831  0.00  0.00    +0.000 C 
BRANCH  10  11
ATOM     11  O2  UNL     1     150.315 151.965 167.415  0.00  0.00    +0.000 OA
ATOM     12  H1  UNL     1     151.229 151.494 167.492  0.00  0.00    +0.000 HD
ENDBRANCH  10  11
ENDBRANCH   1  10
TORSDOF 3
ENDMDL
MODEL 7
REMARK VINA RESULT:      -3.6      1.933      2.232
REMARK  Name = ./3D_structures\o76_MMV1634361_3D.pdb
REMARK  3 active torsions:
REMARK  status: ('A' for Active; 'I' for Inactive)
REMARK    1  A    between atoms: C1_2  and  O2_3
REMARK    2  A    between atoms: C1_2  and  C2_4
REMARK    3  A    between atoms: C3_5  and  N1_6
REMARK                            x       y       z     vdW  Elec       q    Type
REMARK                         _______ _______ _______ _____ _____    ______ ____
ROOT
ATOM      1  C2  UNL     1     161.743 144.517 171.455  0.00  0.00    +0.000 C 
ATOM      2  C3  UNL     1     160.672 145.174 170.653  0.00  0.00    +0.000 C 
ATOM      3  C4  UNL     1     161.128 146.612 170.439  0.00  0.00    +0.000 C 
ATOM      4  C5  UNL     1     162.619 146.435 170.280  0.00  0.00    +0.000 C 
ATOM      5  C6  UNL     1     162.978 145.384 171.301  0.00  0.00    +0.000 C 
ENDROOT
BRANCH   2   6
ATOM      6  N1  UNL     1     159.362 145.098 171.223  0.00  0.00    +0.000 NA
ATOM      7  H4  UNL     1     158.767 145.901 170.857  0.00  0.00    +0.000 HD
ATOM      8  H5  UNL     1     159.384 145.232 172.278  0.00  0.00    +0.000 HD
ENDBRANCH   2   6
BRANCH   1  10
ATOM      9  O1  UNL     1     161.466 145.159 173.736  0.00  0.00    +0.000 OA
ATOM     10  C1  UNL     1     161.390 144.261 172.853  0.00  0.00    +0.000 C 
BRANCH  10  11
ATOM     11  O2  UNL     1     160.952 143.013 173.281  0.00  0.00    +0.000 OA
ATOM     12  H1  UNL     1     160.198 142.505 172.794  0.00  0.00    +0.000 HD
ENDBRANCH  10  11
ENDBRANCH   1  10
TORSDOF 3
ENDMDL
MODEL 8
REMARK VINA RESULT:      -3.6     15.725     16.872
REMARK  Name = ./3D_structures\o76_MMV1634361_3D.pdb
REMARK  3 active torsions:
REMARK  status: ('A' for Active; 'I' for Inactive)
REMARK    1  A    between atoms: C1_2  and  O2_3
REMARK    2  A    between atoms: C1_2  and  C2_4
REMARK    3  A    between atoms: C3_5  and  N1_6
REMARK                            x       y       z     vdW  Elec       q    Type
REMARK                         _______ _______ _______ _____ _____    ______ ____
ROOT
ATOM      1  C2  UNL     1     148.297 152.295 167.145  0.00  0.00    +0.000 C 
ATOM      2  C3  UNL     1     147.475 152.994 166.117  0.00  0.00    +0.000 C 
ATOM      3  C4  UNL     1     146.137 153.294 166.779  0.00  0.00    +0.000 C 
ATOM      4  C5  UNL     1     146.564 153.609 168.193  0.00  0.00    +0.000 C 
ATOM      5  C6  UNL     1     147.653 152.605 168.483  0.00  0.00    +0.000 C 
ENDROOT
BRANCH   2   6
ATOM      6  N1  UNL     1     147.323 152.283 164.885  0.00  0.00    +0.000 NA
ATOM      7  H4  UNL     1     148.083 151.542 164.804  0.00  0.00    +0.000 HD
ATOM      8  H5  UNL     1     147.470 152.917 164.044  0.00  0.00    +0.000 HD
ENDBRANCH   2   6
BRANCH   1  10
ATOM      9  O1  UNL     1     149.546 150.390 166.435  0.00  0.00    +0.000 OA
ATOM     10  C1  UNL     1     148.478 150.861 166.913  0.00  0.00    +0.000 C 
BRANCH  10  11
ATOM     11  O2  UNL     1     147.479 149.940 167.210  0.00  0.00    +0.000 OA
ATOM     12  H1  UNL     1     147.107 149.830 168.165  0.00  0.00    +0.000 HD
ENDBRANCH  10  11
ENDBRANCH   1  10
TORSDOF 3
ENDMDL
MODEL 9
REMARK VINA RESULT:      -3.5     25.481     26.234
REMARK  Name = ./3D_structures\o76_MMV1634361_3D.pdb
REMARK  3 active torsions:
REMARK  status: ('A' for Active; 'I' for Inactive)
REMARK    1  A    between atoms: C1_2  and  O2_3
REMARK    2  A    between atoms: C1_2  and  C2_4
REMARK    3  A    between atoms: C3_5  and  N1_6
REMARK                            x       y       z     vdW  Elec       q    Type
REMARK                         _______ _______ _______ _____ _____    ______ ____
ROOT
ATOM      1  C2  UNL     1     146.130 163.907 167.895  0.00  0.00    +0.000 C 
ATOM      2  C3  UNL     1     144.823 163.822 167.183  0.00  0.00    +0.000 C 
ATOM      3  C4  UNL     1     144.676 165.127 166.412  0.00  0.00    +0.000 C 
ATOM      4  C5  UNL     1     146.102 165.389 165.990  0.00  0.00    +0.000 C 
ATOM      5  C6  UNL     1     146.924 164.992 167.191  0.00  0.00    +0.000 C 
ENDROOT
BRANCH   2   6
ATOM      6  N1  UNL     1     143.696 163.559 168.025  0.00  0.00    +0.000 NA
ATOM      7  H4  UNL     1     143.826 164.052 168.959  0.00  0.00    +0.000 HD
ATOM      8  H5  UNL     1     143.619 162.527 168.270  0.00  0.00    +0.000 HD
ENDBRANCH   2   6
BRANCH   1  10
ATOM      9  O1  UNL     1     146.196 163.177 170.166  0.00  0.00    +0.000 OA
ATOM     10  C1  UNL     1     146.027 164.117 169.341  0.00  0.00    +0.000 C 
BRANCH  10  11
ATOM     11  O2  UNL     1     145.737 165.365 169.880  0.00  0.00    +0.000 OA
ATOM     12  H1  UNL     1     145.852 165.563 170.886  0.00  0.00    +0.000 HD
ENDBRANCH  10  11
ENDBRANCH   1  10
TORSDOF 3
ENDMDL
