MODEL 1
REMARK VINA RESULT:      -6.5      0.000      0.000
REMARK  Name = ./3D_structures\o78_MMV1580483_3D.pdb
REMARK  10 active torsions:
REMARK  status: ('A' for Active; 'I' for Inactive)
REMARK    1  A    between atoms: N1_3  and  C22_29
REMARK    2  A    between atoms: N2_6  and  C4_7
REMARK    3  A    between atoms: C9_13  and  C12_16
REMARK    4  A    between atoms: C14_19  and  O2_20
REMARK    5  A    between atoms: O2_20  and  C15_21
REMARK    6  A    between atoms: C15_21  and  C16_22
REMARK    7  A    between atoms: C16_22  and  C17_23
REMARK    8  A    between atoms: C17_23  and  N5_24
REMARK    9  A    between atoms: N5_24  and  C18_25
REMARK   10  A    between atoms: N5_24  and  C19_26
REMARK                            x       y       z     vdW  Elec       q    Type
REMARK                         _______ _______ _______ _____ _____    ______ ____
ROOT
ATOM      1  O1  UNL     1     148.000 166.819 166.416  0.00  0.00    +0.000 OA
ATOM      2  C1  UNL     1     147.639 165.648 166.627  0.00  0.00    +0.000 A 
ATOM      3  N1  UNL     1     148.440 164.632 167.035  0.00  0.00    +0.000 N 
ATOM      4  C2  UNL     1     147.651 163.563 167.148  0.00  0.00    +0.000 A 
ATOM      5  C3  UNL     1     146.350 163.935 166.796  0.00  0.00    +0.000 A 
ATOM      6  N2  UNL     1     146.374 165.242 166.476  0.00  0.00    +0.000 N 
ATOM      7  C4  UNL     1     145.228 166.024 166.052  0.00  0.00    +0.000 C 
ATOM      8  C5  UNL     1     145.353 162.992 166.821  0.00  0.00    +0.000 A 
ATOM      9  N3  UNL     1     145.574 161.727 167.174  0.00  0.00    +0.000 NA
ATOM     10  C6  UNL     1     146.813 161.363 167.520  0.00  0.00    +0.000 A 
ATOM     11  C7  UNL     1     147.059 160.051 167.924  0.00  0.00    +0.000 A 
ATOM     12  C8  UNL     1     148.304 159.642 168.317  0.00  0.00    +0.000 A 
ATOM     13  C9  UNL     1     149.376 160.499 168.333  0.00  0.00    +0.000 A 
ATOM     14  C10 UNL     1     149.139 161.817 167.926  0.00  0.00    +0.000 A 
ATOM     15  C11 UNL     1     147.897 162.239 167.527  0.00  0.00    +0.000 A 
ENDROOT
BRANCH  13  16
ATOM     16  C12 UNL     1     150.712 160.087 168.741  0.00  0.00    +0.000 A 
ATOM     17  C13 UNL     1     151.859 160.639 168.209  0.00  0.00    +0.000 A 
ATOM     18  N4  UNL     1     153.086 160.244 168.587  0.00  0.00    +0.000 NA
ATOM     19  C14 UNL     1     153.306 159.278 169.512  0.00  0.00    +0.000 A 
ATOM     20  C20 UNL     1     152.150 158.707 170.062  0.00  0.00    +0.000 A 
ATOM     21  C21 UNL     1     150.889 159.103 169.684  0.00  0.00    +0.000 A 
BRANCH  19  22
ATOM     22  O2  UNL     1     154.544 158.927 169.834  0.00  0.00    +0.000 OA
BRANCH  22  23
ATOM     23  C15 UNL     1     155.386 158.013 170.241  0.00  0.00    +0.000 C 
BRANCH  23  24
ATOM     24  C16 UNL     1     155.917 157.033 169.243  0.00  0.00    +0.000 C 
BRANCH  24  25
ATOM     25  C17 UNL     1     156.346 157.650 167.963  0.00  0.00    +0.000 C 
BRANCH  25  26
ATOM     26  N5  UNL     1     155.610 157.113 166.818  0.00  0.00    +0.000 NA
ATOM     27  C18 UNL     1     154.811 158.115 166.145  0.00  0.00    +0.000 C 
ATOM     28  C19 UNL     1     156.535 156.470 165.901  0.00  0.00    +0.000 C 
ENDBRANCH  25  26
ENDBRANCH  24  25
ENDBRANCH  23  24
ENDBRANCH  22  23
ENDBRANCH  19  22
ENDBRANCH  13  16
BRANCH   3  29
ATOM     29  C22 UNL     1     149.855 164.734 167.212  0.00  0.00    +0.000 C 
ATOM     30  C23 UNL     1     150.289 166.050 167.760  0.00  0.00    +0.000 C 
ATOM     31  C24 UNL     1     151.788 166.198 167.690  0.00  0.00    +0.000 C 
ATOM     32  O3  UNL     1     152.267 166.073 166.409  0.00  0.00    +0.000 OA
ATOM     33  C25 UNL     1     151.267 165.857 165.447  0.00  0.00    +0.000 C 
ATOM     34  C26 UNL     1     150.555 164.611 165.835  0.00  0.00    +0.000 C 
ENDBRANCH   3  29
TORSDOF 7
ENDMDL
MODEL 2
REMARK VINA RESULT:      -6.3      2.593      5.132
REMARK  Name = ./3D_structures\o78_MMV1580483_3D.pdb
REMARK  10 active torsions:
REMARK  status: ('A' for Active; 'I' for Inactive)
REMARK    1  A    between atoms: N1_3  and  C22_29
REMARK    2  A    between atoms: N2_6  and  C4_7
REMARK    3  A    between atoms: C9_13  and  C12_16
REMARK    4  A    between atoms: C14_19  and  O2_20
REMARK    5  A    between atoms: O2_20  and  C15_21
REMARK    6  A    between atoms: C15_21  and  C16_22
REMARK    7  A    between atoms: C16_22  and  C17_23
REMARK    8  A    between atoms: C17_23  and  N5_24
REMARK    9  A    between atoms: N5_24  and  C18_25
REMARK   10  A    between atoms: N5_24  and  C19_26
REMARK                            x       y       z     vdW  Elec       q    Type
REMARK                         _______ _______ _______ _____ _____    ______ ____
ROOT
ATOM      1  O1  UNL     1     148.263 162.536 169.403  0.00  0.00    +0.000 OA
ATOM      2  C1  UNL     1     148.902 163.077 168.483  0.00  0.00    +0.000 A 
ATOM      3  N1  UNL     1     150.051 162.610 167.934  0.00  0.00    +0.000 N 
ATOM      4  C2  UNL     1     150.385 163.481 166.981  0.00  0.00    +0.000 A 
ATOM      5  C3  UNL     1     149.425 164.498 166.956  0.00  0.00    +0.000 A 
ATOM      6  N2  UNL     1     148.512 164.217 167.904  0.00  0.00    +0.000 N 
ATOM      7  C4  UNL     1     147.345 165.022 168.211  0.00  0.00    +0.000 C 
ATOM      8  C5  UNL     1     149.562 165.527 166.059  0.00  0.00    +0.000 A 
ATOM      9  N3  UNL     1     150.577 165.596 165.201  0.00  0.00    +0.000 NA
ATOM     10  C6  UNL     1     151.497 164.626 165.211  0.00  0.00    +0.000 A 
ATOM     11  C7  UNL     1     152.550 164.664 164.297  0.00  0.00    +0.000 A 
ATOM     12  C8  UNL     1     153.496 163.676 164.251  0.00  0.00    +0.000 A 
ATOM     13  C9  UNL     1     153.459 162.598 165.100  0.00  0.00    +0.000 A 
ATOM     14  C10 UNL     1     152.406 162.553 166.021  0.00  0.00    +0.000 A 
ATOM     15  C11 UNL     1     151.454 163.538 166.080  0.00  0.00    +0.000 A 
ENDROOT
BRANCH  13  16
ATOM     16  C12 UNL     1     154.456 161.536 165.075  0.00  0.00    +0.000 A 
ATOM     17  C13 UNL     1     155.707 161.700 164.517  0.00  0.00    +0.000 A 
ATOM     18  N4  UNL     1     156.614 160.709 164.491  0.00  0.00    +0.000 NA
ATOM     19  C14 UNL     1     156.385 159.475 165.002  0.00  0.00    +0.000 A 
ATOM     20  C20 UNL     1     155.118 159.294 165.573  0.00  0.00    +0.000 A 
ATOM     21  C21 UNL     1     154.180 160.299 165.606  0.00  0.00    +0.000 A 
BRANCH  19  22
ATOM     22  O2  UNL     1     157.322 158.538 164.936  0.00  0.00    +0.000 OA
BRANCH  22  23
ATOM     23  C15 UNL     1     157.825 157.416 165.380  0.00  0.00    +0.000 C 
BRANCH  23  24
ATOM     24  C16 UNL     1     158.164 157.308 166.833  0.00  0.00    +0.000 C 
BRANCH  24  25
ATOM     25  C17 UNL     1     157.035 156.853 167.682  0.00  0.00    +0.000 C 
BRANCH  25  26
ATOM     26  N5  UNL     1     156.720 157.815 168.740  0.00  0.00    +0.000 NA
ATOM     27  C18 UNL     1     155.733 157.315 169.675  0.00  0.00    +0.000 C 
ATOM     28  C19 UNL     1     157.941 158.210 169.421  0.00  0.00    +0.000 C 
ENDBRANCH  25  26
ENDBRANCH  24  25
ENDBRANCH  23  24
ENDBRANCH  22  23
ENDBRANCH  19  22
ENDBRANCH  13  16
BRANCH   3  29
ATOM     29  C22 UNL     1     150.757 161.452 168.388  0.00  0.00    +0.000 C 
ATOM     30  C23 UNL     1     149.859 160.359 168.859  0.00  0.00    +0.000 C 
ATOM     31  C24 UNL     1     150.644 159.275 169.554  0.00  0.00    +0.000 C 
ATOM     32  O3  UNL     1     151.360 159.752 170.624  0.00  0.00    +0.000 OA
ATOM     33  C25 UNL     1     151.193 161.128 170.852  0.00  0.00    +0.000 C 
ATOM     34  C26 UNL     1     151.626 161.827 169.614  0.00  0.00    +0.000 C 
ENDBRANCH   3  29
TORSDOF 7
ENDMDL
MODEL 3
REMARK VINA RESULT:      -6.1      1.873      2.931
REMARK  Name = ./3D_structures\o78_MMV1580483_3D.pdb
REMARK  10 active torsions:
REMARK  status: ('A' for Active; 'I' for Inactive)
REMARK    1  A    between atoms: N1_3  and  C22_29
REMARK    2  A    between atoms: N2_6  and  C4_7
REMARK    3  A    between atoms: C9_13  and  C12_16
REMARK    4  A    between atoms: C14_19  and  O2_20
REMARK    5  A    between atoms: O2_20  and  C15_21
REMARK    6  A    between atoms: C15_21  and  C16_22
REMARK    7  A    between atoms: C16_22  and  C17_23
REMARK    8  A    between atoms: C17_23  and  N5_24
REMARK    9  A    between atoms: N5_24  and  C18_25
REMARK   10  A    between atoms: N5_24  and  C19_26
REMARK                            x       y       z     vdW  Elec       q    Type
REMARK                         _______ _______ _______ _____ _____    ______ ____
ROOT
ATOM      1  O1  UNL     1     148.254 166.765 166.390  0.00  0.00    +0.000 OA
ATOM      2  C1  UNL     1     147.955 165.577 166.608  0.00  0.00    +0.000 A 
ATOM      3  N1  UNL     1     148.787 164.628 167.105  0.00  0.00    +0.000 N 
ATOM      4  C2  UNL     1     148.063 163.511 167.191  0.00  0.00    +0.000 A 
ATOM      5  C3  UNL     1     146.771 163.787 166.732  0.00  0.00    +0.000 A 
ATOM      6  N2  UNL     1     146.734 165.084 166.376  0.00  0.00    +0.000 N 
ATOM      7  C4  UNL     1     145.575 165.778 165.846  0.00  0.00    +0.000 C 
ATOM      8  C5  UNL     1     145.838 162.781 166.712  0.00  0.00    +0.000 A 
ATOM      9  N3  UNL     1     146.114 161.543 167.117  0.00  0.00    +0.000 NA
ATOM     10  C6  UNL     1     147.344 161.270 167.565  0.00  0.00    +0.000 A 
ATOM     11  C7  UNL     1     147.642 159.988 168.025  0.00  0.00    +0.000 A 
ATOM     12  C8  UNL     1     148.878 159.673 168.521  0.00  0.00    +0.000 A 
ATOM     13  C9  UNL     1     149.888 160.600 168.590  0.00  0.00    +0.000 A 
ATOM     14  C10 UNL     1     149.597 161.889 168.128  0.00  0.00    +0.000 A 
ATOM     15  C11 UNL     1     148.364 162.217 167.626  0.00  0.00    +0.000 A 
ENDROOT
BRANCH  13  16
ATOM     16  C12 UNL     1     151.213 160.289 169.108  0.00  0.00    +0.000 A 
ATOM     17  C13 UNL     1     152.226 161.223 169.180  0.00  0.00    +0.000 A 
ATOM     18  N4  UNL     1     153.447 160.921 169.650  0.00  0.00    +0.000 NA
ATOM     19  C14 UNL     1     153.792 159.686 170.090  0.00  0.00    +0.000 A 
ATOM     20  C20 UNL     1     152.773 158.725 170.024  0.00  0.00    +0.000 A 
ATOM     21  C21 UNL     1     151.519 159.022 169.544  0.00  0.00    +0.000 A 
BRANCH  19  22
ATOM     22  O2  UNL     1     155.019 159.451 170.535  0.00  0.00    +0.000 OA
BRANCH  22  23
ATOM     23  C15 UNL     1     155.813 159.063 171.500  0.00  0.00    +0.000 C 
BRANCH  23  24
ATOM     24  C16 UNL     1     156.116 160.020 172.608  0.00  0.00    +0.000 C 
BRANCH  24  25
ATOM     25  C17 UNL     1     155.261 159.842 173.808  0.00  0.00    +0.000 C 
BRANCH  25  26
ATOM     26  N5  UNL     1     154.247 160.892 173.923  0.00  0.00    +0.000 NA
ATOM     27  C18 UNL     1     154.523 162.034 173.077  0.00  0.00    +0.000 C 
ATOM     28  C19 UNL     1     152.934 160.334 173.647  0.00  0.00    +0.000 C 
ENDBRANCH  25  26
ENDBRANCH  24  25
ENDBRANCH  23  24
ENDBRANCH  22  23
ENDBRANCH  19  22
ENDBRANCH  13  16
BRANCH   3  29
ATOM     29  C22 UNL     1     150.175 164.829 167.383  0.00  0.00    +0.000 C 
ATOM     30  C23 UNL     1     150.477 166.175 167.947  0.00  0.00    +0.000 C 
ATOM     31  C24 UNL     1     151.963 166.426 167.985  0.00  0.00    +0.000 C 
ATOM     32  O3  UNL     1     152.542 166.327 166.744  0.00  0.00    +0.000 OA
ATOM     33  C25 UNL     1     151.632 166.038 165.713  0.00  0.00    +0.000 C 
ATOM     34  C26 UNL     1     150.981 164.747 166.062  0.00  0.00    +0.000 C 
ENDBRANCH   3  29
TORSDOF 7
ENDMDL
MODEL 4
REMARK VINA RESULT:      -6.1      2.890      5.085
REMARK  Name = ./3D_structures\o78_MMV1580483_3D.pdb
REMARK  10 active torsions:
REMARK  status: ('A' for Active; 'I' for Inactive)
REMARK    1  A    between atoms: N1_3  and  C22_29
REMARK    2  A    between atoms: N2_6  and  C4_7
REMARK    3  A    between atoms: C9_13  and  C12_16
REMARK    4  A    between atoms: C14_19  and  O2_20
REMARK    5  A    between atoms: O2_20  and  C15_21
REMARK    6  A    between atoms: C15_21  and  C16_22
REMARK    7  A    between atoms: C16_22  and  C17_23
REMARK    8  A    between atoms: C17_23  and  N5_24
REMARK    9  A    between atoms: N5_24  and  C18_25
REMARK   10  A    between atoms: N5_24  and  C19_26
REMARK                            x       y       z     vdW  Elec       q    Type
REMARK                         _______ _______ _______ _____ _____    ______ ____
ROOT
ATOM      1  O1  UNL     1     151.399 164.622 166.191  0.00  0.00    +0.000 OA
ATOM      2  C1  UNL     1     151.309 163.619 166.921  0.00  0.00    +0.000 A 
ATOM      3  N1  UNL     1     152.122 162.533 166.882  0.00  0.00    +0.000 N 
ATOM      4  C2  UNL     1     151.683 161.710 167.835  0.00  0.00    +0.000 A 
ATOM      5  C3  UNL     1     150.581 162.304 168.459  0.00  0.00    +0.000 A 
ATOM      6  N2  UNL     1     150.372 163.494 167.867  0.00  0.00    +0.000 N 
ATOM      7  C4  UNL     1     149.322 164.433 168.215  0.00  0.00    +0.000 C 
ATOM      8  C5  UNL     1     149.943 161.633 169.472  0.00  0.00    +0.000 A 
ATOM      9  N3  UNL     1     150.335 160.433 169.893  0.00  0.00    +0.000 NA
ATOM     10  C6  UNL     1     151.392 159.859 169.308  0.00  0.00    +0.000 A 
ATOM     11  C7  UNL     1     151.839 158.617 169.757  0.00  0.00    +0.000 A 
ATOM     12  C8  UNL     1     152.936 158.007 169.210  0.00  0.00    +0.000 A 
ATOM     13  C9  UNL     1     153.652 158.585 168.191  0.00  0.00    +0.000 A 
ATOM     14  C10 UNL     1     153.209 159.832 167.734  0.00  0.00    +0.000 A 
ATOM     15  C11 UNL     1     152.110 160.451 168.271  0.00  0.00    +0.000 A 
ENDROOT
BRANCH  13  16
ATOM     16  C12 UNL     1     154.818 157.956 167.588  0.00  0.00    +0.000 A 
ATOM     17  C13 UNL     1     155.810 157.352 168.333  0.00  0.00    +0.000 A 
ATOM     18  N4  UNL     1     156.886 156.783 167.765  0.00  0.00    +0.000 NA
ATOM     19  C14 UNL     1     157.094 156.753 166.426  0.00  0.00    +0.000 A 
ATOM     20  C20 UNL     1     156.094 157.362 165.656  0.00  0.00    +0.000 A 
ATOM     21  C21 UNL     1     154.988 157.947 166.224  0.00  0.00    +0.000 A 
BRANCH  19  22
ATOM     22  O2  UNL     1     158.184 156.182 165.930  0.00  0.00    +0.000 OA
BRANCH  22  23
ATOM     23  C15 UNL     1     159.165 156.191 165.066  0.00  0.00    +0.000 C 
BRANCH  23  24
ATOM     24  C16 UNL     1     159.401 154.968 164.237  0.00  0.00    +0.000 C 
BRANCH  24  25
ATOM     25  C17 UNL     1     158.684 153.764 164.724  0.00  0.00    +0.000 C 
BRANCH  25  26
ATOM     26  N5  UNL     1     157.552 153.411 163.864  0.00  0.00    +0.000 NA
ATOM     27  C18 UNL     1     157.740 153.829 162.491  0.00  0.00    +0.000 C 
ATOM     28  C19 UNL     1     157.299 151.983 163.952  0.00  0.00    +0.000 C 
ENDBRANCH  25  26
ENDBRANCH  24  25
ENDBRANCH  23  24
ENDBRANCH  22  23
ENDBRANCH  19  22
ENDBRANCH  13  16
BRANCH   3  29
ATOM     29  C22 UNL     1     153.170 162.337 165.930  0.00  0.00    +0.000 C 
ATOM     30  C23 UNL     1     154.140 163.468 165.877  0.00  0.00    +0.000 C 
ATOM     31  C24 UNL     1     155.068 163.330 164.697  0.00  0.00    +0.000 C 
ATOM     32  O3  UNL     1     154.392 163.271 163.503  0.00  0.00    +0.000 OA
ATOM     33  C25 UNL     1     152.997 163.372 163.634  0.00  0.00    +0.000 C 
ATOM     34  C26 UNL     1     152.563 162.250 164.507  0.00  0.00    +0.000 C 
ENDBRANCH   3  29
TORSDOF 7
ENDMDL
MODEL 5
REMARK VINA RESULT:      -6.0      2.639      4.126
REMARK  Name = ./3D_structures\o78_MMV1580483_3D.pdb
REMARK  10 active torsions:
REMARK  status: ('A' for Active; 'I' for Inactive)
REMARK    1  A    between atoms: N1_3  and  C22_29
REMARK    2  A    between atoms: N2_6  and  C4_7
REMARK    3  A    between atoms: C9_13  and  C12_16
REMARK    4  A    between atoms: C14_19  and  O2_20
REMARK    5  A    between atoms: O2_20  and  C15_21
REMARK    6  A    between atoms: C15_21  and  C16_22
REMARK    7  A    between atoms: C16_22  and  C17_23
REMARK    8  A    between atoms: C17_23  and  N5_24
REMARK    9  A    between atoms: N5_24  and  C18_25
REMARK   10  A    between atoms: N5_24  and  C19_26
REMARK                            x       y       z     vdW  Elec       q    Type
REMARK                         _______ _______ _______ _____ _____    ______ ____
ROOT
ATOM      1  O1  UNL     1     151.131 165.340 165.514  0.00  0.00    +0.000 OA
ATOM      2  C1  UNL     1     150.866 164.427 166.316  0.00  0.00    +0.000 A 
ATOM      3  N1  UNL     1     151.596 163.300 166.505  0.00  0.00    +0.000 N 
ATOM      4  C2  UNL     1     150.967 162.608 167.457  0.00  0.00    +0.000 A 
ATOM      5  C3  UNL     1     149.832 163.327 167.847  0.00  0.00    +0.000 A 
ATOM      6  N2  UNL     1     149.796 164.457 167.119  0.00  0.00    +0.000 N 
ATOM      7  C4  UNL     1     148.777 165.486 167.213  0.00  0.00    +0.000 C 
ATOM      8  C5  UNL     1     149.009 162.805 168.814  0.00  0.00    +0.000 A 
ATOM      9  N3  UNL     1     149.250 161.636 169.403  0.00  0.00    +0.000 NA
ATOM     10  C6  UNL     1     150.336 160.945 169.042  0.00  0.00    +0.000 A 
ATOM     11  C7  UNL     1     150.624 159.734 169.671  0.00  0.00    +0.000 A 
ATOM     12  C8  UNL     1     151.741 159.008 169.356  0.00  0.00    +0.000 A 
ATOM     13  C9  UNL     1     152.635 159.433 168.405  0.00  0.00    +0.000 A 
ATOM     14  C10 UNL     1     152.353 160.647 167.768  0.00  0.00    +0.000 A 
ATOM     15  C11 UNL     1     151.236 161.381 168.072  0.00  0.00    +0.000 A 
ENDROOT
BRANCH  13  16
ATOM     16  C12 UNL     1     153.828 158.678 168.048  0.00  0.00    +0.000 A 
ATOM     17  C13 UNL     1     154.382 158.710 166.785  0.00  0.00    +0.000 A 
ATOM     18  N4  UNL     1     155.477 158.001 166.466  0.00  0.00    +0.000 NA
ATOM     19  C14 UNL     1     156.128 157.198 167.343  0.00  0.00    +0.000 A 
ATOM     20  C20 UNL     1     155.577 157.155 168.630  0.00  0.00    +0.000 A 
ATOM     21  C21 UNL     1     154.456 157.876 168.971  0.00  0.00    +0.000 A 
BRANCH  19  22
ATOM     22  O2  UNL     1     157.200 156.516 166.960  0.00  0.00    +0.000 OA
BRANCH  22  23
ATOM     23  C15 UNL     1     158.219 156.382 166.151  0.00  0.00    +0.000 C 
BRANCH  23  24
ATOM     24  C16 UNL     1     158.189 155.282 165.138  0.00  0.00    +0.000 C 
BRANCH  24  25
ATOM     25  C17 UNL     1     157.517 155.652 163.868  0.00  0.00    +0.000 C 
BRANCH  25  26
ATOM     26  N5  UNL     1     158.119 154.988 162.711  0.00  0.00    +0.000 NA
ATOM     27  C18 UNL     1     157.564 153.673 162.468  0.00  0.00    +0.000 C 
ATOM     28  C19 UNL     1     157.996 155.839 161.540  0.00  0.00    +0.000 C 
ENDBRANCH  25  26
ENDBRANCH  24  25
ENDBRANCH  23  24
ENDBRANCH  22  23
ENDBRANCH  19  22
ENDBRANCH  13  16
BRANCH   3  29
ATOM     29  C22 UNL     1     152.753 162.944 165.744  0.00  0.00    +0.000 C 
ATOM     30  C23 UNL     1     153.773 164.029 165.678  0.00  0.00    +0.000 C 
ATOM     31  C24 UNL     1     154.845 163.704 164.668  0.00  0.00    +0.000 C 
ATOM     32  O3  UNL     1     154.335 163.498 163.411  0.00  0.00    +0.000 OA
ATOM     33  C25 UNL     1     152.941 163.655 163.330  0.00  0.00    +0.000 C 
ATOM     34  C26 UNL     1     152.341 162.677 164.275  0.00  0.00    +0.000 C 
ENDBRANCH   3  29
TORSDOF 7
ENDMDL
MODEL 6
REMARK VINA RESULT:      -6.0      3.047      5.751
REMARK  Name = ./3D_structures\o78_MMV1580483_3D.pdb
REMARK  10 active torsions:
REMARK  status: ('A' for Active; 'I' for Inactive)
REMARK    1  A    between atoms: N1_3  and  C22_29
REMARK    2  A    between atoms: N2_6  and  C4_7
REMARK    3  A    between atoms: C9_13  and  C12_16
REMARK    4  A    between atoms: C14_19  and  O2_20
REMARK    5  A    between atoms: O2_20  and  C15_21
REMARK    6  A    between atoms: C15_21  and  C16_22
REMARK    7  A    between atoms: C16_22  and  C17_23
REMARK    8  A    between atoms: C17_23  and  N5_24
REMARK    9  A    between atoms: N5_24  and  C18_25
REMARK   10  A    between atoms: N5_24  and  C19_26
REMARK                            x       y       z     vdW  Elec       q    Type
REMARK                         _______ _______ _______ _____ _____    ______ ____
ROOT
ATOM      1  O1  UNL     1     148.705 162.430 169.415  0.00  0.00    +0.000 OA
ATOM      2  C1  UNL     1     149.466 162.757 168.487  0.00  0.00    +0.000 A 
ATOM      3  N1  UNL     1     150.520 162.034 168.034  0.00  0.00    +0.000 N 
ATOM      4  C2  UNL     1     151.047 162.740 167.031  0.00  0.00    +0.000 A 
ATOM      5  C3  UNL     1     150.302 163.914 166.879  0.00  0.00    +0.000 A 
ATOM      6  N2  UNL     1     149.322 163.896 167.801  0.00  0.00    +0.000 N 
ATOM      7  C4  UNL     1     148.323 164.931 167.985  0.00  0.00    +0.000 C 
ATOM      8  C5  UNL     1     150.664 164.815 165.910  0.00  0.00    +0.000 A 
ATOM      9  N3  UNL     1     151.701 164.615 165.099  0.00  0.00    +0.000 NA
ATOM     10  C6  UNL     1     152.415 163.493 165.232  0.00  0.00    +0.000 A 
ATOM     11  C7  UNL     1     153.485 163.250 164.371  0.00  0.00    +0.000 A 
ATOM     12  C8  UNL     1     154.223 162.100 164.449  0.00  0.00    +0.000 A 
ATOM     13  C9  UNL     1     153.951 161.127 165.379  0.00  0.00    +0.000 A 
ATOM     14  C10 UNL     1     152.880 161.364 166.248  0.00  0.00    +0.000 A 
ATOM     15  C11 UNL     1     152.135 162.513 166.182  0.00  0.00    +0.000 A 
ENDROOT
BRANCH  13  16
ATOM     16  C12 UNL     1     154.724 159.898 165.487  0.00  0.00    +0.000 A 
ATOM     17  C13 UNL     1     154.246 158.768 166.117  0.00  0.00    +0.000 A 
ATOM     18  N4  UNL     1     154.973 157.643 166.218  0.00  0.00    +0.000 NA
ATOM     19  C14 UNL     1     156.228 157.518 165.719  0.00  0.00    +0.000 A 
ATOM     20  C20 UNL     1     156.728 158.659 165.076  0.00  0.00    +0.000 A 
ATOM     21  C21 UNL     1     155.994 159.816 164.966  0.00  0.00    +0.000 A 
BRANCH  19  22
ATOM     22  O2  UNL     1     156.896 156.381 165.862  0.00  0.00    +0.000 OA
BRANCH  22  23
ATOM     23  C15 UNL     1     157.976 155.675 165.648  0.00  0.00    +0.000 C 
BRANCH  23  24
ATOM     24  C16 UNL     1     157.984 154.703 164.512  0.00  0.00    +0.000 C 
BRANCH  24  25
ATOM     25  C17 UNL     1     159.073 153.697 164.588  0.00  0.00    +0.000 C 
BRANCH  25  26
ATOM     26  N5  UNL     1     158.642 152.382 164.111  0.00  0.00    +0.000 NA
ATOM     27  C18 UNL     1     157.211 152.300 163.906  0.00  0.00    +0.000 C 
ATOM     28  C19 UNL     1     159.370 152.040 162.901  0.00  0.00    +0.000 C 
ENDBRANCH  25  26
ENDBRANCH  24  25
ENDBRANCH  23  24
ENDBRANCH  22  23
ENDBRANCH  19  22
ENDBRANCH  13  16
BRANCH   3  29
ATOM     29  C22 UNL     1     150.973 160.808 168.612  0.00  0.00    +0.000 C 
ATOM     30  C23 UNL     1     149.867 159.949 169.121  0.00  0.00    +0.000 C 
ATOM     31  C24 UNL     1     150.403 158.801 169.938  0.00  0.00    +0.000 C 
ATOM     32  O3  UNL     1     151.159 159.225 171.003  0.00  0.00    +0.000 OA
ATOM     33  C25 UNL     1     151.251 160.622 171.114  0.00  0.00    +0.000 C 
ATOM     34  C26 UNL     1     151.854 161.118 169.848  0.00  0.00    +0.000 C 
ENDBRANCH   3  29
TORSDOF 7
ENDMDL
MODEL 7
REMARK VINA RESULT:      -5.8      3.808     10.446
REMARK  Name = ./3D_structures\o78_MMV1580483_3D.pdb
REMARK  10 active torsions:
REMARK  status: ('A' for Active; 'I' for Inactive)
REMARK    1  A    between atoms: N1_3  and  C22_29
REMARK    2  A    between atoms: N2_6  and  C4_7
REMARK    3  A    between atoms: C9_13  and  C12_16
REMARK    4  A    between atoms: C14_19  and  O2_20
REMARK    5  A    between atoms: O2_20  and  C15_21
REMARK    6  A    between atoms: C15_21  and  C16_22
REMARK    7  A    between atoms: C16_22  and  C17_23
REMARK    8  A    between atoms: C17_23  and  N5_24
REMARK    9  A    between atoms: N5_24  and  C18_25
REMARK   10  A    between atoms: N5_24  and  C19_26
REMARK                            x       y       z     vdW  Elec       q    Type
REMARK                         _______ _______ _______ _____ _____    ______ ____
ROOT
ATOM      1  O1  UNL     1     159.647 158.176 162.417  0.00  0.00    +0.000 OA
ATOM      2  C1  UNL     1     158.844 157.980 163.346  0.00  0.00    +0.000 A 
ATOM      3  N1  UNL     1     157.823 158.800 163.700  0.00  0.00    +0.000 N 
ATOM      4  C2  UNL     1     157.213 158.207 164.728  0.00  0.00    +0.000 A 
ATOM      5  C3  UNL     1     157.881 157.010 165.006  0.00  0.00    +0.000 A 
ATOM      6  N2  UNL     1     158.893 156.895 164.127  0.00  0.00    +0.000 N 
ATOM      7  C4  UNL     1     159.835 155.793 164.070  0.00  0.00    +0.000 C 
ATOM      8  C5  UNL     1     157.441 156.223 166.041  0.00  0.00    +0.000 A 
ATOM      9  N3  UNL     1     156.395 156.554 166.796  0.00  0.00    +0.000 NA
ATOM     10  C6  UNL     1     155.746 157.693 166.534  0.00  0.00    +0.000 A 
ATOM     11  C7  UNL     1     154.628 158.040 167.292  0.00  0.00    +0.000 A 
ATOM     12  C8  UNL     1     153.914 159.180 167.038  0.00  0.00    +0.000 A 
ATOM     13  C9  UNL     1     154.261 160.041 166.027  0.00  0.00    +0.000 A 
ATOM     14  C10 UNL     1     155.384 159.701 165.263  0.00  0.00    +0.000 A 
ATOM     15  C11 UNL     1     156.109 158.564 165.509  0.00  0.00    +0.000 A 
ENDROOT
BRANCH  13  16
ATOM     16  C12 UNL     1     153.522 161.263 165.740  0.00  0.00    +0.000 A 
ATOM     17  C13 UNL     1     153.684 162.422 166.470  0.00  0.00    +0.000 A 
ATOM     18  N4  UNL     1     152.989 163.539 166.202  0.00  0.00    +0.000 NA
ATOM     19  C14 UNL     1     152.075 163.628 165.204  0.00  0.00    +0.000 A 
ATOM     20  C20 UNL     1     151.900 162.458 164.453  0.00  0.00    +0.000 A 
ATOM     21  C21 UNL     1     152.605 161.308 164.717  0.00  0.00    +0.000 A 
BRANCH  19  22
ATOM     22  O2  UNL     1     151.416 164.761 164.997  0.00  0.00    +0.000 OA
BRANCH  22  23
ATOM     23  C15 UNL     1     150.574 165.667 165.421  0.00  0.00    +0.000 C 
BRANCH  23  24
ATOM     24  C16 UNL     1     149.495 165.253 166.372  0.00  0.00    +0.000 C 
BRANCH  24  25
ATOM     25  C17 UNL     1     148.203 165.952 166.156  0.00  0.00    +0.000 C 
BRANCH  25  26
ATOM     26  N5  UNL     1     147.145 165.435 167.027  0.00  0.00    +0.000 NA
ATOM     27  C18 UNL     1     145.853 166.027 166.750  0.00  0.00    +0.000 C 
ATOM     28  C19 UNL     1     147.096 163.986 166.928  0.00  0.00    +0.000 C 
ENDBRANCH  25  26
ENDBRANCH  24  25
ENDBRANCH  23  24
ENDBRANCH  22  23
ENDBRANCH  19  22
ENDBRANCH  13  16
BRANCH   3  29
ATOM     29  C22 UNL     1     157.558 160.071 163.103  0.00  0.00    +0.000 C 
ATOM     30  C23 UNL     1     157.696 160.068 161.619  0.00  0.00    +0.000 C 
ATOM     31  C24 UNL     1     157.656 161.471 161.068  0.00  0.00    +0.000 C 
ATOM     32  O3  UNL     1     158.636 162.271 161.600  0.00  0.00    +0.000 OA
ATOM     33  C25 UNL     1     159.470 161.612 162.519  0.00  0.00    +0.000 C 
ATOM     34  C26 UNL     1     158.597 161.104 163.609  0.00  0.00    +0.000 C 
ENDBRANCH   3  29
TORSDOF 7
ENDMDL
MODEL 8
REMARK VINA RESULT:      -5.8      3.535      5.956
REMARK  Name = ./3D_structures\o78_MMV1580483_3D.pdb
REMARK  10 active torsions:
REMARK  status: ('A' for Active; 'I' for Inactive)
REMARK    1  A    between atoms: N1_3  and  C22_29
REMARK    2  A    between atoms: N2_6  and  C4_7
REMARK    3  A    between atoms: C9_13  and  C12_16
REMARK    4  A    between atoms: C14_19  and  O2_20
REMARK    5  A    between atoms: O2_20  and  C15_21
REMARK    6  A    between atoms: C15_21  and  C16_22
REMARK    7  A    between atoms: C16_22  and  C17_23
REMARK    8  A    between atoms: C17_23  and  N5_24
REMARK    9  A    between atoms: N5_24  and  C18_25
REMARK   10  A    between atoms: N5_24  and  C19_26
REMARK                            x       y       z     vdW  Elec       q    Type
REMARK                         _______ _______ _______ _____ _____    ______ ____
ROOT
ATOM      1  O1  UNL     1     150.997 163.901 166.758  0.00  0.00    +0.000 OA
ATOM      2  C1  UNL     1     151.211 162.835 167.362  0.00  0.00    +0.000 A 
ATOM      3  N1  UNL     1     152.181 161.935 167.065  0.00  0.00    +0.000 N 
ATOM      4  C2  UNL     1     152.063 160.955 167.963  0.00  0.00    +0.000 A 
ATOM      5  C3  UNL     1     150.998 161.264 168.816  0.00  0.00    +0.000 A 
ATOM      6  N2  UNL     1     150.487 162.443 168.416  0.00  0.00    +0.000 N 
ATOM      7  C4  UNL     1     149.365 163.125 169.033  0.00  0.00    +0.000 C 
ATOM      8  C5  UNL     1     150.671 160.391 169.822  0.00  0.00    +0.000 A 
ATOM      9  N3  UNL     1     151.334 159.254 170.026  0.00  0.00    +0.000 NA
ATOM     10  C6  UNL     1     152.358 158.953 169.221  0.00  0.00    +0.000 A 
ATOM     11  C7  UNL     1     153.085 157.783 169.438  0.00  0.00    +0.000 A 
ATOM     12  C8  UNL     1     154.160 157.451 168.660  0.00  0.00    +0.000 A 
ATOM     13  C9  UNL     1     154.579 158.249 167.624  0.00  0.00    +0.000 A 
ATOM     14  C10 UNL     1     153.853 159.425 167.398  0.00  0.00    +0.000 A 
ATOM     15  C11 UNL     1     152.772 159.767 168.169  0.00  0.00    +0.000 A 
ENDROOT
BRANCH  13  16
ATOM     16  C12 UNL     1     155.716 157.916 166.778  0.00  0.00    +0.000 A 
ATOM     17  C13 UNL     1     156.054 158.648 165.658  0.00  0.00    +0.000 A 
ATOM     18  N4  UNL     1     157.099 158.324 164.880  0.00  0.00    +0.000 NA
ATOM     19  C14 UNL     1     157.906 157.261 165.120  0.00  0.00    +0.000 A 
ATOM     20  C20 UNL     1     157.576 156.508 166.254  0.00  0.00    +0.000 A 
ATOM     21  C21 UNL     1     156.508 156.828 167.059  0.00  0.00    +0.000 A 
BRANCH  19  22
ATOM     22  O2  UNL     1     158.918 156.991 164.305  0.00  0.00    +0.000 OA
BRANCH  22  23
ATOM     23  C15 UNL     1     160.177 157.143 163.985  0.00  0.00    +0.000 C 
BRANCH  23  24
ATOM     24  C16 UNL     1     161.221 156.573 164.892  0.00  0.00    +0.000 C 
BRANCH  24  25
ATOM     25  C17 UNL     1     162.019 157.598 165.609  0.00  0.00    +0.000 C 
BRANCH  25  26
ATOM     26  N5  UNL     1     163.198 157.022 166.259  0.00  0.00    +0.000 NA
ATOM     27  C18 UNL     1     163.137 157.103 167.704  0.00  0.00    +0.000 C 
ATOM     28  C19 UNL     1     163.382 155.652 165.814  0.00  0.00    +0.000 C 
ENDBRANCH  25  26
ENDBRANCH  24  25
ENDBRANCH  23  24
ENDBRANCH  22  23
ENDBRANCH  19  22
ENDBRANCH  13  16
BRANCH   3  29
ATOM     29  C22 UNL     1     153.068 162.035 165.948  0.00  0.00    +0.000 C 
ATOM     30  C23 UNL     1     153.782 163.341 165.876  0.00  0.00    +0.000 C 
ATOM     31  C24 UNL     1     154.503 163.492 164.560  0.00  0.00    +0.000 C 
ATOM     32  O3  UNL     1     153.655 163.392 163.484  0.00  0.00    +0.000 OA
ATOM     33  C25 UNL     1     152.310 163.193 163.837  0.00  0.00    +0.000 C 
ATOM     34  C26 UNL     1     152.253 161.939 164.634  0.00  0.00    +0.000 C 
ENDBRANCH   3  29
TORSDOF 7
ENDMDL
MODEL 9
REMARK VINA RESULT:      -5.7      4.146      7.405
REMARK  Name = ./3D_structures\o78_MMV1580483_3D.pdb
REMARK  10 active torsions:
REMARK  status: ('A' for Active; 'I' for Inactive)
REMARK    1  A    between atoms: N1_3  and  C22_29
REMARK    2  A    between atoms: N2_6  and  C4_7
REMARK    3  A    between atoms: C9_13  and  C12_16
REMARK    4  A    between atoms: C14_19  and  O2_20
REMARK    5  A    between atoms: O2_20  and  C15_21
REMARK    6  A    between atoms: C15_21  and  C16_22
REMARK    7  A    between atoms: C16_22  and  C17_23
REMARK    8  A    between atoms: C17_23  and  N5_24
REMARK    9  A    between atoms: N5_24  and  C18_25
REMARK   10  A    between atoms: N5_24  and  C19_26
REMARK                            x       y       z     vdW  Elec       q    Type
REMARK                         _______ _______ _______ _____ _____    ______ ____
ROOT
ATOM      1  O1  UNL     1     151.519 163.147 170.344  0.00  0.00    +0.000 OA
ATOM      2  C1  UNL     1     152.375 162.377 170.814  0.00  0.00    +0.000 A 
ATOM      3  N1  UNL     1     153.118 161.490 170.107  0.00  0.00    +0.000 N 
ATOM      4  C2  UNL     1     153.911 160.884 170.993  0.00  0.00    +0.000 A 
ATOM      5  C3  UNL     1     153.638 161.410 172.261  0.00  0.00    +0.000 A 
ATOM      6  N2  UNL     1     152.676 162.339 172.117  0.00  0.00    +0.000 N 
ATOM      7  C4  UNL     1     152.101 163.126 173.191  0.00  0.00    +0.000 C 
ATOM      8  C5  UNL     1     154.325 160.929 173.347  0.00  0.00    +0.000 A 
ATOM      9  N3  UNL     1     155.252 159.978 173.243  0.00  0.00    +0.000 NA
ATOM     10  C6  UNL     1     155.525 159.475 172.035  0.00  0.00    +0.000 A 
ATOM     11  C7  UNL     1     156.516 158.502 171.901  0.00  0.00    +0.000 A 
ATOM     12  C8  UNL     1     156.851 157.981 170.680  0.00  0.00    +0.000 A 
ATOM     13  C9  UNL     1     156.230 158.388 169.525  0.00  0.00    +0.000 A 
ATOM     14  C10 UNL     1     155.233 159.363 169.651  0.00  0.00    +0.000 A 
ATOM     15  C11 UNL     1     154.886 159.890 170.868  0.00  0.00    +0.000 A 
ENDROOT
BRANCH  13  16
ATOM     16  C12 UNL     1     156.564 157.847 168.215  0.00  0.00    +0.000 A 
ATOM     17  C13 UNL     1     157.861 157.593 167.820  0.00  0.00    +0.000 A 
ATOM     18  N4  UNL     1     158.157 157.102 166.606  0.00  0.00    +0.000 NA
ATOM     19  C14 UNL     1     157.220 156.818 165.668  0.00  0.00    +0.000 A 
ATOM     20  C20 UNL     1     155.897 157.070 166.054  0.00  0.00    +0.000 A 
ATOM     21  C21 UNL     1     155.581 157.572 167.295  0.00  0.00    +0.000 A 
BRANCH  19  22
ATOM     22  O2  UNL     1     157.580 156.343 164.482  0.00  0.00    +0.000 OA
BRANCH  22  23
ATOM     23  C15 UNL     1     157.544 155.383 163.596  0.00  0.00    +0.000 C 
BRANCH  23  24
ATOM     24  C16 UNL     1     158.143 154.059 163.949  0.00  0.00    +0.000 C 
BRANCH  24  25
ATOM     25  C17 UNL     1     157.467 152.903 163.309  0.00  0.00    +0.000 C 
BRANCH  25  26
ATOM     26  N5  UNL     1     157.254 151.800 164.248  0.00  0.00    +0.000 NA
ATOM     27  C18 UNL     1     156.455 150.731 163.685  0.00  0.00    +0.000 C 
ATOM     28  C19 UNL     1     158.535 151.308 164.723  0.00  0.00    +0.000 C 
ENDBRANCH  25  26
ENDBRANCH  24  25
ENDBRANCH  23  24
ENDBRANCH  22  23
ENDBRANCH  19  22
ENDBRANCH  13  16
BRANCH   3  29
ATOM     29  C22 UNL     1     152.974 161.243 168.706  0.00  0.00    +0.000 C 
ATOM     30  C23 UNL     1     152.840 162.488 167.898  0.00  0.00    +0.000 C 
ATOM     31  C24 UNL     1     152.442 162.171 166.478  0.00  0.00    +0.000 C 
ATOM     32  O3  UNL     1     151.263 161.470 166.409  0.00  0.00    +0.000 OA
ATOM     33  C25 UNL     1     150.677 161.220 167.661  0.00  0.00    +0.000 C 
ATOM     34  C26 UNL     1     151.668 160.448 168.456  0.00  0.00    +0.000 C 
ENDBRANCH   3  29
TORSDOF 7
ENDMDL
