MODEL 1
REMARK VINA RESULT:      -6.7      0.000      0.000
REMARK  Name = ./3D_structures\o10_MMV000059_3D.pdb
REMARK  8 active torsions:
REMARK  status: ('A' for Active; 'I' for Inactive)
REMARK    1  A    between atoms: C1_2  and  C13_17
REMARK    2  A    between atoms: C4_5  and  C5_6
REMARK    3  A    between atoms: C8_9  and  C9_10
REMARK    4  A    between atoms: N2_12  and  O2_13
REMARK    5  A    between atoms: O2_13  and  C10_14
REMARK    6  A    between atoms: C16_20  and  C17_21
REMARK    7  A    between atoms: N4_23  and  O3_24
REMARK    8  A    between atoms: O3_24  and  C18_25
REMARK                            x       y       z     vdW  Elec       q    Type
REMARK                         _______ _______ _______ _____ _____    ______ ____
ROOT
ATOM      1  O1  UNL     1     151.194 161.347 167.417  0.00  0.00    +0.000 OA
ATOM      2  C1  UNL     1     151.894 160.566 168.188  0.00  0.00    +0.000 A 
ATOM      3  C2  UNL     1     151.454 160.753 169.475  0.00  0.00    +0.000 A 
ATOM      4  C3  UNL     1     150.431 161.709 169.431  0.00  0.00    +0.000 A 
ATOM      5  C4  UNL     1     150.324 162.035 168.099  0.00  0.00    +0.000 A 
ENDROOT
BRANCH   5   6
ATOM      6  C5  UNL     1     149.392 162.995 167.539  0.00  0.00    +0.000 A 
ATOM      7  C6  UNL     1     149.831 164.161 166.952  0.00  0.00    +0.000 A 
ATOM      8  C7  UNL     1     148.918 165.078 166.416  0.00  0.00    +0.000 A 
ATOM      9  C8  UNL     1     147.565 164.851 166.455  0.00  0.00    +0.000 A 
ATOM     10  C11 UNL     1     147.114 163.689 167.039  0.00  0.00    +0.000 A 
ATOM     11  C12 UNL     1     148.032 162.777 167.573  0.00  0.00    +0.000 A 
BRANCH   9  12
ATOM     12  C9  UNL     1     146.595 165.782 165.909  0.00  0.00    +0.000 C 
ATOM     13  N1  UNL     1     146.901 167.022 165.625  0.00  0.00    +0.000 NA
ATOM     14  N2  UNL     1     145.253 165.413 165.646  0.00  0.00    +0.000 N 
ATOM     15  H5  UNL     1     147.818 167.451 165.752  0.00  0.00    +0.000 HD
ATOM     16  H6  UNL     1     145.060 164.426 165.347  0.00  0.00    +0.000 HD
BRANCH  14  17
ATOM     17  O2  UNL     1     144.204 166.265 165.759  0.00  0.00    +0.000 OA
ATOM     18  C10 UNL     1     143.016 165.711 165.348  0.00  0.00    +0.000 C 
ENDBRANCH  14  17
ENDBRANCH   9  12
ENDBRANCH   5   6
BRANCH   2  19
ATOM     19  C13 UNL     1     152.957 159.651 167.776  0.00  0.00    +0.000 A 
ATOM     20  C14 UNL     1     153.503 159.696 166.511  0.00  0.00    +0.000 A 
ATOM     21  C15 UNL     1     154.500 158.860 166.079  0.00  0.00    +0.000 A 
ATOM     22  C16 UNL     1     155.016 157.899 166.937  0.00  0.00    +0.000 A 
ATOM     23  C19 UNL     1     154.491 157.832 168.204  0.00  0.00    +0.000 A 
ATOM     24  C20 UNL     1     153.476 158.695 168.619  0.00  0.00    +0.000 A 
BRANCH  22  25
ATOM     25  C17 UNL     1     156.082 157.002 166.488  0.00  0.00    +0.000 C 
ATOM     26  N3  UNL     1     155.933 156.279 165.453  0.00  0.00    +0.000 NA
ATOM     27  N4  UNL     1     157.319 156.916 167.206  0.00  0.00    +0.000 N 
ATOM     28  H14 UNL     1     155.103 156.241 164.847  0.00  0.00    +0.000 HD
ATOM     29  H15 UNL     1     157.277 156.989 168.238  0.00  0.00    +0.000 HD
BRANCH  27  30
ATOM     30  O3  UNL     1     158.484 156.743 166.509  0.00  0.00    +0.000 OA
ATOM     31  C18 UNL     1     159.181 157.947 166.613  0.00  0.00    +0.000 C 
ENDBRANCH  27  30
ENDBRANCH  22  25
ENDBRANCH   2  19
TORSDOF 6
ENDMDL
MODEL 2
REMARK VINA RESULT:      -6.6      0.553     10.864
REMARK  Name = ./3D_structures\o10_MMV000059_3D.pdb
REMARK  8 active torsions:
REMARK  status: ('A' for Active; 'I' for Inactive)
REMARK    1  A    between atoms: C1_2  and  C13_17
REMARK    2  A    between atoms: C4_5  and  C5_6
REMARK    3  A    between atoms: C8_9  and  C9_10
REMARK    4  A    between atoms: N2_12  and  O2_13
REMARK    5  A    between atoms: O2_13  and  C10_14
REMARK    6  A    between atoms: C16_20  and  C17_21
REMARK    7  A    between atoms: N4_23  and  O3_24
REMARK    8  A    between atoms: O3_24  and  C18_25
REMARK                            x       y       z     vdW  Elec       q    Type
REMARK                         _______ _______ _______ _____ _____    ______ ____
ROOT
ATOM      1  O1  UNL     1     151.327 161.394 167.285  0.00  0.00    +0.000 OA
ATOM      2  C1  UNL     1     150.474 162.066 168.004  0.00  0.00    +0.000 A 
ATOM      3  C2  UNL     1     150.675 161.717 169.317  0.00  0.00    +0.000 A 
ATOM      4  C3  UNL     1     151.717 160.781 169.345  0.00  0.00    +0.000 A 
ATOM      5  C4  UNL     1     152.077 160.629 168.027  0.00  0.00    +0.000 A 
ENDROOT
BRANCH   5   6
ATOM      6  C5  UNL     1     153.124 159.755 167.534  0.00  0.00    +0.000 A 
ATOM      7  C6  UNL     1     153.599 158.708 168.293  0.00  0.00    +0.000 A 
ATOM      8  C7  UNL     1     154.611 157.874 167.803  0.00  0.00    +0.000 A 
ATOM      9  C8  UNL     1     155.162 158.064 166.561  0.00  0.00    +0.000 A 
ATOM     10  C11 UNL     1     154.695 159.108 165.793  0.00  0.00    +0.000 A 
ATOM     11  C12 UNL     1     153.684 159.938 166.289  0.00  0.00    +0.000 A 
BRANCH   9  12
ATOM     12  C9  UNL     1     156.213 157.217 166.027  0.00  0.00    +0.000 C 
ATOM     13  N1  UNL     1     155.958 156.069 165.452  0.00  0.00    +0.000 NA
ATOM     14  N2  UNL     1     157.581 157.575 166.088  0.00  0.00    +0.000 N 
ATOM     15  H5  UNL     1     155.032 155.663 165.324  0.00  0.00    +0.000 HD
ATOM     16  H6  UNL     1     157.831 158.593 166.031  0.00  0.00    +0.000 HD
BRANCH  14  17
ATOM     17  O2  UNL     1     158.587 156.676 166.219  0.00  0.00    +0.000 OA
ATOM     18  C10 UNL     1     159.693 156.995 165.470  0.00  0.00    +0.000 C 
ENDBRANCH  14  17
ENDBRANCH   9  12
ENDBRANCH   5   6
BRANCH   2  19
ATOM     19  C13 UNL     1     149.478 163.019 167.519  0.00  0.00    +0.000 A 
ATOM     20  C14 UNL     1     148.126 162.760 167.598  0.00  0.00    +0.000 A 
ATOM     21  C15 UNL     1     147.156 163.623 167.157  0.00  0.00    +0.000 A 
ATOM     22  C16 UNL     1     147.516 164.838 166.592  0.00  0.00    +0.000 A 
ATOM     23  C19 UNL     1     148.856 165.122 166.501  0.00  0.00    +0.000 A 
ATOM     24  C20 UNL     1     149.825 164.227 166.957  0.00  0.00    +0.000 A 
BRANCH  22  25
ATOM     25  C17 UNL     1     146.489 165.767 166.119  0.00  0.00    +0.000 C 
ATOM     26  N3  UNL     1     146.781 166.709 165.317  0.00  0.00    +0.000 NA
ATOM     27  N4  UNL     1     145.128 165.637 166.550  0.00  0.00    +0.000 N 
ATOM     28  H14 UNL     1     147.711 166.917 164.929  0.00  0.00    +0.000 HD
ATOM     29  H15 UNL     1     144.966 165.336 167.527  0.00  0.00    +0.000 HD
BRANCH  27  30
ATOM     30  O3  UNL     1     144.121 165.912 165.666  0.00  0.00    +0.000 OA
ATOM     31  C18 UNL     1     143.315 164.774 165.629  0.00  0.00    +0.000 C 
ENDBRANCH  27  30
ENDBRANCH  22  25
ENDBRANCH   2  19
TORSDOF 6
ENDMDL
MODEL 3
REMARK VINA RESULT:      -6.6      1.515      2.084
REMARK  Name = ./3D_structures\o10_MMV000059_3D.pdb
REMARK  8 active torsions:
REMARK  status: ('A' for Active; 'I' for Inactive)
REMARK    1  A    between atoms: C1_2  and  C13_17
REMARK    2  A    between atoms: C4_5  and  C5_6
REMARK    3  A    between atoms: C8_9  and  C9_10
REMARK    4  A    between atoms: N2_12  and  O2_13
REMARK    5  A    between atoms: O2_13  and  C10_14
REMARK    6  A    between atoms: C16_20  and  C17_21
REMARK    7  A    between atoms: N4_23  and  O3_24
REMARK    8  A    between atoms: O3_24  and  C18_25
REMARK                            x       y       z     vdW  Elec       q    Type
REMARK                         _______ _______ _______ _____ _____    ______ ____
ROOT
ATOM      1  O1  UNL     1     151.594 160.612 168.362  0.00  0.00    +0.000 OA
ATOM      2  C1  UNL     1     152.409 159.708 168.825  0.00  0.00    +0.000 A 
ATOM      3  C2  UNL     1     152.117 159.531 170.156  0.00  0.00    +0.000 A 
ATOM      4  C3  UNL     1     151.061 160.397 170.469  0.00  0.00    +0.000 A 
ATOM      5  C4  UNL     1     150.786 161.045 169.288  0.00  0.00    +0.000 A 
ENDROOT
BRANCH   5   6
ATOM      6  C5  UNL     1     149.760 162.052 169.098  0.00  0.00    +0.000 A 
ATOM      7  C6  UNL     1     149.774 163.232 169.810  0.00  0.00    +0.000 A 
ATOM      8  C7  UNL     1     148.776 164.194 169.615  0.00  0.00    +0.000 A 
ATOM      9  C8  UNL     1     147.757 164.001 168.717  0.00  0.00    +0.000 A 
ATOM     10  C11 UNL     1     147.732 162.826 168.000  0.00  0.00    +0.000 A 
ATOM     11  C12 UNL     1     148.732 161.868 168.199  0.00  0.00    +0.000 A 
BRANCH   9  12
ATOM     12  C9  UNL     1     146.708 164.979 168.494  0.00  0.00    +0.000 C 
ATOM     13  N1  UNL     1     145.862 165.321 169.433  0.00  0.00    +0.000 NA
ATOM     14  N2  UNL     1     146.529 165.630 167.250  0.00  0.00    +0.000 N 
ATOM     15  H5  UNL     1     145.849 164.951 170.383  0.00  0.00    +0.000 HD
ATOM     16  H6  UNL     1     147.378 165.827 166.666  0.00  0.00    +0.000 HD
BRANCH  14  17
ATOM     17  O2  UNL     1     145.320 166.012 166.769  0.00  0.00    +0.000 OA
ATOM     18  C10 UNL     1     145.411 166.953 165.773  0.00  0.00    +0.000 C 
ENDBRANCH  14  17
ENDBRANCH   9  12
ENDBRANCH   5   6
BRANCH   2  19
ATOM     19  C13 UNL     1     153.449 159.001 168.080  0.00  0.00    +0.000 A 
ATOM     20  C14 UNL     1     154.190 157.989 168.652  0.00  0.00    +0.000 A 
ATOM     21  C15 UNL     1     155.175 157.298 167.995  0.00  0.00    +0.000 A 
ATOM     22  C16 UNL     1     155.471 157.605 166.674  0.00  0.00    +0.000 A 
ATOM     23  C19 UNL     1     154.747 158.608 166.079  0.00  0.00    +0.000 A 
ATOM     24  C20 UNL     1     153.750 159.298 166.771  0.00  0.00    +0.000 A 
BRANCH  22  25
ATOM     25  C17 UNL     1     156.519 156.873 165.961  0.00  0.00    +0.000 C 
ATOM     26  N3  UNL     1     156.238 155.856 165.252  0.00  0.00    +0.000 NA
ATOM     27  N4  UNL     1     157.889 157.286 166.047  0.00  0.00    +0.000 N 
ATOM     28  H14 UNL     1     155.304 155.454 165.103  0.00  0.00    +0.000 HD
ATOM     29  H15 UNL     1     158.218 157.657 166.956  0.00  0.00    +0.000 HD
BRANCH  27  30
ATOM     30  O3  UNL     1     158.689 157.172 164.943  0.00  0.00    +0.000 OA
ATOM     31  C18 UNL     1     159.983 156.967 165.420  0.00  0.00    +0.000 C 
ENDBRANCH  27  30
ENDBRANCH  22  25
ENDBRANCH   2  19
TORSDOF 6
ENDMDL
MODEL 4
REMARK VINA RESULT:      -6.5      0.957     10.765
REMARK  Name = ./3D_structures\o10_MMV000059_3D.pdb
REMARK  8 active torsions:
REMARK  status: ('A' for Active; 'I' for Inactive)
REMARK    1  A    between atoms: C1_2  and  C13_17
REMARK    2  A    between atoms: C4_5  and  C5_6
REMARK    3  A    between atoms: C8_9  and  C9_10
REMARK    4  A    between atoms: N2_12  and  O2_13
REMARK    5  A    between atoms: O2_13  and  C10_14
REMARK    6  A    between atoms: C16_20  and  C17_21
REMARK    7  A    between atoms: N4_23  and  O3_24
REMARK    8  A    between atoms: O3_24  and  C18_25
REMARK                            x       y       z     vdW  Elec       q    Type
REMARK                         _______ _______ _______ _____ _____    ______ ____
ROOT
ATOM      1  O1  UNL     1     151.436 161.133 167.425  0.00  0.00    +0.000 OA
ATOM      2  C1  UNL     1     150.532 161.765 168.118  0.00  0.00    +0.000 A 
ATOM      3  C2  UNL     1     150.618 161.319 169.414  0.00  0.00    +0.000 A 
ATOM      4  C3  UNL     1     151.644 160.366 169.459  0.00  0.00    +0.000 A 
ATOM      5  C4  UNL     1     152.112 160.304 168.168  0.00  0.00    +0.000 A 
ENDROOT
BRANCH   5   6
ATOM      6  C5  UNL     1     153.188 159.450 167.702  0.00  0.00    +0.000 A 
ATOM      7  C6  UNL     1     153.717 159.589 166.437  0.00  0.00    +0.000 A 
ATOM      8  C7  UNL     1     154.754 158.756 166.002  0.00  0.00    +0.000 A 
ATOM      9  C8  UNL     1     155.280 157.780 166.811  0.00  0.00    +0.000 A 
ATOM     10  C11 UNL     1     154.760 157.631 168.077  0.00  0.00    +0.000 A 
ATOM     11  C12 UNL     1     153.722 158.466 168.505  0.00  0.00    +0.000 A 
BRANCH   9  12
ATOM     12  C9  UNL     1     156.355 156.901 166.388  0.00  0.00    +0.000 C 
ATOM     13  N1  UNL     1     157.409 156.681 167.131  0.00  0.00    +0.000 NA
ATOM     14  N2  UNL     1     156.336 156.222 165.145  0.00  0.00    +0.000 N 
ATOM     15  H5  UNL     1     157.582 157.087 168.050  0.00  0.00    +0.000 HD
ATOM     16  H6  UNL     1     155.408 155.921 164.759  0.00  0.00    +0.000 HD
BRANCH  14  17
ATOM     17  O2  UNL     1     157.451 155.941 164.426  0.00  0.00    +0.000 OA
ATOM     18  C10 UNL     1     157.613 154.597 164.192  0.00  0.00    +0.000 C 
ENDBRANCH  14  17
ENDBRANCH   9  12
ENDBRANCH   5   6
BRANCH   2  19
ATOM     19  C13 UNL     1     149.591 162.768 167.623  0.00  0.00    +0.000 A 
ATOM     20  C14 UNL     1     148.227 162.577 167.687  0.00  0.00    +0.000 A 
ATOM     21  C15 UNL     1     147.307 163.487 167.237  0.00  0.00    +0.000 A 
ATOM     22  C16 UNL     1     147.734 164.683 166.677  0.00  0.00    +0.000 A 
ATOM     23  C19 UNL     1     149.087 164.900 166.600  0.00  0.00    +0.000 A 
ATOM     24  C20 UNL     1     150.004 163.956 167.066  0.00  0.00    +0.000 A 
BRANCH  22  25
ATOM     25  C17 UNL     1     146.760 165.663 166.194  0.00  0.00    +0.000 C 
ATOM     26  N3  UNL     1     147.091 166.547 165.342  0.00  0.00    +0.000 NA
ATOM     27  N4  UNL     1     145.408 165.650 166.670  0.00  0.00    +0.000 N 
ATOM     28  H14 UNL     1     148.020 166.671 164.918  0.00  0.00    +0.000 HD
ATOM     29  H15 UNL     1     145.257 165.403 167.664  0.00  0.00    +0.000 HD
BRANCH  27  30
ATOM     30  O3  UNL     1     144.394 165.959 165.806  0.00  0.00    +0.000 OA
ATOM     31  C18 UNL     1     143.552 164.848 165.780  0.00  0.00    +0.000 C 
ENDBRANCH  27  30
ENDBRANCH  22  25
ENDBRANCH   2  19
TORSDOF 6
ENDMDL
MODEL 5
REMARK VINA RESULT:      -6.3      2.421     10.954
REMARK  Name = ./3D_structures\o10_MMV000059_3D.pdb
REMARK  8 active torsions:
REMARK  status: ('A' for Active; 'I' for Inactive)
REMARK    1  A    between atoms: C1_2  and  C13_17
REMARK    2  A    between atoms: C4_5  and  C5_6
REMARK    3  A    between atoms: C8_9  and  C9_10
REMARK    4  A    between atoms: N2_12  and  O2_13
REMARK    5  A    between atoms: O2_13  and  C10_14
REMARK    6  A    between atoms: C16_20  and  C17_21
REMARK    7  A    between atoms: N4_23  and  O3_24
REMARK    8  A    between atoms: O3_24  and  C18_25
REMARK                            x       y       z     vdW  Elec       q    Type
REMARK                         _______ _______ _______ _____ _____    ______ ____
ROOT
ATOM      1  O1  UNL     1     153.275 161.934 165.573  0.00  0.00    +0.000 OA
ATOM      2  C1  UNL     1     152.976 163.176 165.322  0.00  0.00    +0.000 A 
ATOM      3  C2  UNL     1     154.050 163.739 164.678  0.00  0.00    +0.000 A 
ATOM      4  C3  UNL     1     155.029 162.745 164.555  0.00  0.00    +0.000 A 
ATOM      5  C4  UNL     1     154.468 161.635 165.142  0.00  0.00    +0.000 A 
ENDROOT
BRANCH   5   6
ATOM      6  C5  UNL     1     155.100 160.336 165.266  0.00  0.00    +0.000 A 
ATOM      7  C6  UNL     1     156.334 160.083 164.708  0.00  0.00    +0.000 A 
ATOM      8  C7  UNL     1     156.930 158.823 164.835  0.00  0.00    +0.000 A 
ATOM      9  C8  UNL     1     156.315 157.802 165.515  0.00  0.00    +0.000 A 
ATOM     10  C11 UNL     1     155.081 158.042 166.077  0.00  0.00    +0.000 A 
ATOM     11  C12 UNL     1     154.490 159.304 165.945  0.00  0.00    +0.000 A 
BRANCH   9  12
ATOM     12  C9  UNL     1     156.907 156.485 165.664  0.00  0.00    +0.000 C 
ATOM     13  N1  UNL     1     157.698 156.185 166.662  0.00  0.00    +0.000 NA
ATOM     14  N2  UNL     1     156.668 155.437 164.742  0.00  0.00    +0.000 N 
ATOM     15  H5  UNL     1     157.973 156.818 167.412  0.00  0.00    +0.000 HD
ATOM     16  H6  UNL     1     155.731 155.395 164.271  0.00  0.00    +0.000 HD
BRANCH  14  17
ATOM     17  O2  UNL     1     157.583 154.485 164.433  0.00  0.00    +0.000 OA
ATOM     18  C10 UNL     1     157.820 154.386 163.084  0.00  0.00    +0.000 C 
ENDBRANCH  14  17
ENDBRANCH   9  12
ENDBRANCH   5   6
BRANCH   2  19
ATOM     19  C13 UNL     1     151.729 163.862 165.657  0.00  0.00    +0.000 A 
ATOM     20  C14 UNL     1     150.849 163.354 166.589  0.00  0.00    +0.000 A 
ATOM     21  C15 UNL     1     149.670 163.960 166.936  0.00  0.00    +0.000 A 
ATOM     22  C16 UNL     1     149.305 165.157 166.335  0.00  0.00    +0.000 A 
ATOM     23  C19 UNL     1     150.162 165.686 165.403  0.00  0.00    +0.000 A 
ATOM     24  C20 UNL     1     151.358 165.049 165.067  0.00  0.00    +0.000 A 
BRANCH  22  25
ATOM     25  C17 UNL     1     148.048 165.814 166.698  0.00  0.00    +0.000 C 
ATOM     26  N3  UNL     1     147.547 166.718 165.959  0.00  0.00    +0.000 NA
ATOM     27  N4  UNL     1     147.353 165.453 167.899  0.00  0.00    +0.000 N 
ATOM     28  H14 UNL     1     147.937 167.072 165.075  0.00  0.00    +0.000 HD
ATOM     29  H15 UNL     1     147.926 165.216 168.728  0.00  0.00    +0.000 HD
BRANCH  27  30
ATOM     30  O3  UNL     1     145.984 165.438 167.897  0.00  0.00    +0.000 OA
ATOM     31  C18 UNL     1     145.609 164.160 168.309  0.00  0.00    +0.000 C 
ENDBRANCH  27  30
ENDBRANCH  22  25
ENDBRANCH   2  19
TORSDOF 6
ENDMDL
MODEL 6
REMARK VINA RESULT:      -6.3      2.278      3.265
REMARK  Name = ./3D_structures\o10_MMV000059_3D.pdb
REMARK  8 active torsions:
REMARK  status: ('A' for Active; 'I' for Inactive)
REMARK    1  A    between atoms: C1_2  and  C13_17
REMARK    2  A    between atoms: C4_5  and  C5_6
REMARK    3  A    between atoms: C8_9  and  C9_10
REMARK    4  A    between atoms: N2_12  and  O2_13
REMARK    5  A    between atoms: O2_13  and  C10_14
REMARK    6  A    between atoms: C16_20  and  C17_21
REMARK    7  A    between atoms: N4_23  and  O3_24
REMARK    8  A    between atoms: O3_24  and  C18_25
REMARK                            x       y       z     vdW  Elec       q    Type
REMARK                         _______ _______ _______ _____ _____    ______ ____
ROOT
ATOM      1  O1  UNL     1     152.729 159.574 168.495  0.00  0.00    +0.000 OA
ATOM      2  C1  UNL     1     153.307 158.423 168.686  0.00  0.00    +0.000 A 
ATOM      3  C2  UNL     1     152.596 157.759 169.656  0.00  0.00    +0.000 A 
ATOM      4  C3  UNL     1     151.540 158.594 170.042  0.00  0.00    +0.000 A 
ATOM      5  C4  UNL     1     151.690 159.720 169.266  0.00  0.00    +0.000 A 
ENDROOT
BRANCH   5   6
ATOM      6  C5  UNL     1     150.829 160.887 169.299  0.00  0.00    +0.000 A 
ATOM      7  C6  UNL     1     151.157 161.998 170.045  0.00  0.00    +0.000 A 
ATOM      8  C7  UNL     1     150.315 163.116 170.067  0.00  0.00    +0.000 A 
ATOM      9  C8  UNL     1     149.144 163.149 169.352  0.00  0.00    +0.000 A 
ATOM     10  C11 UNL     1     148.806 162.044 168.602  0.00  0.00    +0.000 A 
ATOM     11  C12 UNL     1     149.651 160.929 168.586  0.00  0.00    +0.000 A 
BRANCH   9  12
ATOM     12  C9  UNL     1     148.251 164.293 169.355  0.00  0.00    +0.000 C 
ATOM     13  N1  UNL     1     147.987 164.968 170.444  0.00  0.00    +0.000 NA
ATOM     14  N2  UNL     1     147.608 164.757 168.182  0.00  0.00    +0.000 N 
ATOM     15  H5  UNL     1     148.364 164.771 171.371  0.00  0.00    +0.000 HD
ATOM     16  H6  UNL     1     148.111 164.655 167.267  0.00  0.00    +0.000 HD
BRANCH  14  17
ATOM     17  O2  UNL     1     146.376 165.324 168.176  0.00  0.00    +0.000 OA
ATOM     18  C10 UNL     1     145.363 164.406 168.051  0.00  0.00    +0.000 C 
ENDBRANCH  14  17
ENDBRANCH   9  12
ENDBRANCH   5   6
BRANCH   2  19
ATOM     19  C13 UNL     1     154.494 157.914 168.002  0.00  0.00    +0.000 A 
ATOM     20  C14 UNL     1     154.641 158.011 166.634  0.00  0.00    +0.000 A 
ATOM     21  C15 UNL     1     155.735 157.549 165.949  0.00  0.00    +0.000 A 
ATOM     22  C16 UNL     1     156.776 156.942 166.637  0.00  0.00    +0.000 A 
ATOM     23  C19 UNL     1     156.657 156.832 168.000  0.00  0.00    +0.000 A 
ATOM     24  C20 UNL     1     155.532 157.311 168.675  0.00  0.00    +0.000 A 
BRANCH  22  25
ATOM     25  C17 UNL     1     157.949 156.446 165.917  0.00  0.00    +0.000 C 
ATOM     26  N3  UNL     1     159.086 156.995 166.063  0.00  0.00    +0.000 NA
ATOM     27  N4  UNL     1     157.844 155.327 165.026  0.00  0.00    +0.000 N 
ATOM     28  H14 UNL     1     159.304 157.800 166.666  0.00  0.00    +0.000 HD
ATOM     29  H15 UNL     1     156.976 155.243 164.469  0.00  0.00    +0.000 HD
BRANCH  27  30
ATOM     30  O3  UNL     1     158.878 154.434 164.954  0.00  0.00    +0.000 OA
ATOM     31  C18 UNL     1     158.396 153.339 164.236  0.00  0.00    +0.000 C 
ENDBRANCH  27  30
ENDBRANCH  22  25
ENDBRANCH   2  19
TORSDOF 6
ENDMDL
MODEL 7
REMARK VINA RESULT:      -5.9      2.144     10.849
REMARK  Name = ./3D_structures\o10_MMV000059_3D.pdb
REMARK  8 active torsions:
REMARK  status: ('A' for Active; 'I' for Inactive)
REMARK    1  A    between atoms: C1_2  and  C13_17
REMARK    2  A    between atoms: C4_5  and  C5_6
REMARK    3  A    between atoms: C8_9  and  C9_10
REMARK    4  A    between atoms: N2_12  and  O2_13
REMARK    5  A    between atoms: O2_13  and  C10_14
REMARK    6  A    between atoms: C16_20  and  C17_21
REMARK    7  A    between atoms: N4_23  and  O3_24
REMARK    8  A    between atoms: O3_24  and  C18_25
REMARK                            x       y       z     vdW  Elec       q    Type
REMARK                         _______ _______ _______ _____ _____    ______ ____
ROOT
ATOM      1  O1  UNL     1     152.796 159.430 168.338  0.00  0.00    +0.000 OA
ATOM      2  C1  UNL     1     151.766 159.617 169.112  0.00  0.00    +0.000 A 
ATOM      3  C2  UNL     1     151.731 158.580 170.011  0.00  0.00    +0.000 A 
ATOM      4  C3  UNL     1     152.818 157.744 169.726  0.00  0.00    +0.000 A 
ATOM      5  C4  UNL     1     153.443 158.346 168.659  0.00  0.00    +0.000 A 
ENDROOT
BRANCH   5   6
ATOM      6  C5  UNL     1     154.634 157.854 167.993  0.00  0.00    +0.000 A 
ATOM      7  C6  UNL     1     155.683 157.316 168.705  0.00  0.00    +0.000 A 
ATOM      8  C7  UNL     1     156.826 156.847 168.047  0.00  0.00    +0.000 A 
ATOM      9  C8  UNL     1     156.943 156.904 166.681  0.00  0.00    +0.000 A 
ATOM     10  C11 UNL     1     155.901 157.441 165.958  0.00  0.00    +0.000 A 
ATOM     11  C12 UNL     1     154.762 157.908 166.622  0.00  0.00    +0.000 A 
BRANCH   9  12
ATOM     12  C9  UNL     1     158.115 156.427 165.971  0.00  0.00    +0.000 C 
ATOM     13  N1  UNL     1     159.265 157.049 166.025  0.00  0.00    +0.000 NA
ATOM     14  N2  UNL     1     158.096 155.257 165.174  0.00  0.00    +0.000 N 
ATOM     15  H5  UNL     1     159.454 157.902 166.551  0.00  0.00    +0.000 HD
ATOM     16  H6  UNL     1     157.466 154.469 165.464  0.00  0.00    +0.000 HD
BRANCH  14  17
ATOM     17  O2  UNL     1     158.846 155.098 164.055  0.00  0.00    +0.000 OA
ATOM     18  C10 UNL     1     158.104 154.723 162.961  0.00  0.00    +0.000 C 
ENDBRANCH  14  17
ENDBRANCH   9  12
ENDBRANCH   5   6
BRANCH   2  19
ATOM     19  C13 UNL     1     150.812 160.723 169.050  0.00  0.00    +0.000 A 
ATOM     20  C14 UNL     1     151.009 161.891 169.755  0.00  0.00    +0.000 A 
ATOM     21  C15 UNL     1     150.144 162.954 169.729  0.00  0.00    +0.000 A 
ATOM     22  C16 UNL     1     148.992 162.889 168.958  0.00  0.00    +0.000 A 
ATOM     23  C19 UNL     1     148.771 161.737 168.244  0.00  0.00    +0.000 A 
ATOM     24  C20 UNL     1     149.667 160.668 168.289  0.00  0.00    +0.000 A 
BRANCH  22  25
ATOM     25  C17 UNL     1     148.061 164.018 168.921  0.00  0.00    +0.000 C 
ATOM     26  N3  UNL     1     148.438 165.186 169.254  0.00  0.00    +0.000 NA
ATOM     27  N4  UNL     1     146.701 163.834 168.509  0.00  0.00    +0.000 N 
ATOM     28  H14 UNL     1     149.379 165.459 169.567  0.00  0.00    +0.000 HD
ATOM     29  H15 UNL     1     146.236 162.950 168.784  0.00  0.00    +0.000 HD
BRANCH  27  30
ATOM     30  O3  UNL     1     146.086 164.816 167.782  0.00  0.00    +0.000 OA
ATOM     31  C18 UNL     1     146.245 164.465 166.441  0.00  0.00    +0.000 C 
ENDBRANCH  27  30
ENDBRANCH  22  25
ENDBRANCH   2  19
TORSDOF 6
ENDMDL
MODEL 8
REMARK VINA RESULT:      -5.9      2.491     10.792
REMARK  Name = ./3D_structures\o10_MMV000059_3D.pdb
REMARK  8 active torsions:
REMARK  status: ('A' for Active; 'I' for Inactive)
REMARK    1  A    between atoms: C1_2  and  C13_17
REMARK    2  A    between atoms: C4_5  and  C5_6
REMARK    3  A    between atoms: C8_9  and  C9_10
REMARK    4  A    between atoms: N2_12  and  O2_13
REMARK    5  A    between atoms: O2_13  and  C10_14
REMARK    6  A    between atoms: C16_20  and  C17_21
REMARK    7  A    between atoms: N4_23  and  O3_24
REMARK    8  A    between atoms: O3_24  and  C18_25
REMARK                            x       y       z     vdW  Elec       q    Type
REMARK                         _______ _______ _______ _____ _____    ______ ____
ROOT
ATOM      1  O1  UNL     1     152.819 160.905 166.577  0.00  0.00    +0.000 OA
ATOM      2  C1  UNL     1     152.190 162.041 166.486  0.00  0.00    +0.000 A 
ATOM      3  C2  UNL     1     152.868 162.818 165.579  0.00  0.00    +0.000 A 
ATOM      4  C3  UNL     1     153.960 162.068 165.123  0.00  0.00    +0.000 A 
ATOM      5  C4  UNL     1     153.862 160.874 165.797  0.00  0.00    +0.000 A 
ENDROOT
BRANCH   5   6
ATOM      6  C5  UNL     1     154.774 159.754 165.664  0.00  0.00    +0.000 A 
ATOM      7  C6  UNL     1     155.983 159.887 165.019  0.00  0.00    +0.000 A 
ATOM      8  C7  UNL     1     156.852 158.795 164.899  0.00  0.00    +0.000 A 
ATOM      9  C8  UNL     1     156.535 157.564 165.415  0.00  0.00    +0.000 A 
ATOM     10  C11 UNL     1     155.328 157.418 166.062  0.00  0.00    +0.000 A 
ATOM     11  C12 UNL     1     154.464 158.513 166.178  0.00  0.00    +0.000 A 
BRANCH   9  12
ATOM     12  C9  UNL     1     157.413 156.414 165.305  0.00  0.00    +0.000 C 
ATOM     13  N1  UNL     1     158.643 156.431 165.752  0.00  0.00    +0.000 NA
ATOM     14  N2  UNL     1     157.001 155.197 164.711  0.00  0.00    +0.000 N 
ATOM     15  H5  UNL     1     159.099 157.223 166.206  0.00  0.00    +0.000 HD
ATOM     16  H6  UNL     1     155.995 154.914 164.808  0.00  0.00    +0.000 HD
BRANCH  14  17
ATOM     17  O2  UNL     1     157.833 154.378 164.022  0.00  0.00    +0.000 OA
ATOM     18  C10 UNL     1     157.648 154.444 162.663  0.00  0.00    +0.000 C 
ENDBRANCH  14  17
ENDBRANCH   9  12
ENDBRANCH   5   6
BRANCH   2  19
ATOM     19  C13 UNL     1     150.982 162.434 167.209  0.00  0.00    +0.000 A 
ATOM     20  C14 UNL     1     150.480 163.717 167.141  0.00  0.00    +0.000 A 
ATOM     21  C15 UNL     1     149.352 164.132 167.800  0.00  0.00    +0.000 A 
ATOM     22  C16 UNL     1     148.646 163.239 168.592  0.00  0.00    +0.000 A 
ATOM     23  C19 UNL     1     149.123 161.954 168.679  0.00  0.00    +0.000 A 
ATOM     24  C20 UNL     1     150.275 161.556 167.998  0.00  0.00    +0.000 A 
BRANCH  22  25
ATOM     25  C17 UNL     1     147.440 163.670 169.300  0.00  0.00    +0.000 C 
ATOM     26  N3  UNL     1     147.509 164.497 170.263  0.00  0.00    +0.000 NA
ATOM     27  N4  UNL     1     146.151 163.169 168.924  0.00  0.00    +0.000 N 
ATOM     28  H14 UNL     1     148.362 164.934 170.635  0.00  0.00    +0.000 HD
ATOM     29  H15 UNL     1     146.095 162.181 168.619  0.00  0.00    +0.000 HD
BRANCH  27  30
ATOM     30  O3  UNL     1     145.068 164.004 168.984  0.00  0.00    +0.000 OA
ATOM     31  C18 UNL     1     144.762 164.338 167.665  0.00  0.00    +0.000 C 
ENDBRANCH  27  30
ENDBRANCH  22  25
ENDBRANCH   2  19
TORSDOF 6
ENDMDL
MODEL 9
REMARK VINA RESULT:      -5.9      4.303     12.825
REMARK  Name = ./3D_structures\o10_MMV000059_3D.pdb
REMARK  8 active torsions:
REMARK  status: ('A' for Active; 'I' for Inactive)
REMARK    1  A    between atoms: C1_2  and  C13_17
REMARK    2  A    between atoms: C4_5  and  C5_6
REMARK    3  A    between atoms: C8_9  and  C9_10
REMARK    4  A    between atoms: N2_12  and  O2_13
REMARK    5  A    between atoms: O2_13  and  C10_14
REMARK    6  A    between atoms: C16_20  and  C17_21
REMARK    7  A    between atoms: N4_23  and  O3_24
REMARK    8  A    between atoms: O3_24  and  C18_25
REMARK                            x       y       z     vdW  Elec       q    Type
REMARK                         _______ _______ _______ _____ _____    ______ ____
ROOT
ATOM      1  O1  UNL     1     156.707 157.956 165.326  0.00  0.00    +0.000 OA
ATOM      2  C1  UNL     1     155.814 158.539 166.074  0.00  0.00    +0.000 A 
ATOM      3  C2  UNL     1     155.804 157.893 167.286  0.00  0.00    +0.000 A 
ATOM      4  C3  UNL     1     156.760 156.871 167.221  0.00  0.00    +0.000 A 
ATOM      5  C4  UNL     1     157.287 156.974 165.955  0.00  0.00    +0.000 A 
ENDROOT
BRANCH   5   6
ATOM      6  C5  UNL     1     158.326 156.125 165.403  0.00  0.00    +0.000 A 
ATOM      7  C6  UNL     1     158.066 154.824 165.033  0.00  0.00    +0.000 A 
ATOM      8  C7  UNL     1     159.080 154.017 164.503  0.00  0.00    +0.000 A 
ATOM      9  C8  UNL     1     160.357 154.488 164.330  0.00  0.00    +0.000 A 
ATOM     10  C11 UNL     1     160.629 155.787 164.696  0.00  0.00    +0.000 A 
ATOM     11  C12 UNL     1     159.611 156.588 165.226  0.00  0.00    +0.000 A 
BRANCH   9  12
ATOM     12  C9  UNL     1     161.428 153.676 163.783  0.00  0.00    +0.000 C 
ATOM     13  N1  UNL     1     161.321 153.062 162.632  0.00  0.00    +0.000 NA
ATOM     14  N2  UNL     1     162.662 153.494 164.455  0.00  0.00    +0.000 N 
ATOM     15  H5  UNL     1     160.505 153.087 162.021  0.00  0.00    +0.000 HD
ATOM     16  H6  UNL     1     163.028 154.283 165.042  0.00  0.00    +0.000 HD
BRANCH  14  17
ATOM     17  O2  UNL     1     163.395 152.355 164.383  0.00  0.00    +0.000 OA
ATOM     18  C10 UNL     1     164.520 152.391 165.171  0.00  0.00    +0.000 C 
ENDBRANCH  14  17
ENDBRANCH   9  12
ENDBRANCH   5   6
BRANCH   2  19
ATOM     19  C13 UNL     1     154.969 159.673 165.707  0.00  0.00    +0.000 A 
ATOM     20  C14 UNL     1     153.597 159.628 165.836  0.00  0.00    +0.000 A 
ATOM     21  C15 UNL     1     152.763 160.665 165.506  0.00  0.00    +0.000 A 
ATOM     22  C16 UNL     1     153.294 161.847 165.008  0.00  0.00    +0.000 A 
ATOM     23  C19 UNL     1     154.658 161.920 164.869  0.00  0.00    +0.000 A 
ATOM     24  C20 UNL     1     155.485 160.849 165.213  0.00  0.00    +0.000 A 
BRANCH  22  25
ATOM     25  C17 UNL     1     152.415 162.961 164.653  0.00  0.00    +0.000 C 
ATOM     26  N3  UNL     1     151.945 163.073 163.477  0.00  0.00    +0.000 NA
ATOM     27  N4  UNL     1     152.063 163.955 165.624  0.00  0.00    +0.000 N 
ATOM     28  H14 UNL     1     152.114 162.436 162.688  0.00  0.00    +0.000 HD
ATOM     29  H15 UNL     1     152.789 164.231 166.308  0.00  0.00    +0.000 HD
BRANCH  27  30
ATOM     30  O3  UNL     1     150.802 164.488 165.605  0.00  0.00    +0.000 OA
ATOM     31  C18 UNL     1     150.954 165.832 165.267  0.00  0.00    +0.000 C 
ENDBRANCH  27  30
ENDBRANCH  22  25
ENDBRANCH   2  19
TORSDOF 6
ENDMDL
