MODEL 1
REMARK VINA RESULT:      -6.4      0.000      0.000
REMARK  Name = ./3D_structures\o13_MMV1634362_3D.pdb
REMARK  9 active torsions:
REMARK  status: ('A' for Active; 'I' for Inactive)
REMARK    1  A    between atoms: C1_2  and  C11_14
REMARK    2  A    between atoms: C2_4  and  C4_6
REMARK    3  A    between atoms: C7_9  and  C8_10
REMARK    4  A    between atoms: C11_14  and  C12_15
REMARK    5  A    between atoms: C11_14  and  C22_31
REMARK    6  A    between atoms: C12_15  and  O1_16
REMARK    7  A    between atoms: C12_15  and  C13_17
REMARK    8  A    between atoms: C12_15  and  C19_25
REMARK    9  A    between atoms: C19_25  and  N3_26
REMARK                            x       y       z     vdW  Elec       q    Type
REMARK                         _______ _______ _______ _____ _____    ______ ____
ROOT
ATOM      1  C12 UNL     1     146.373 164.290 167.975  0.00  0.00    +0.000 C 
ENDROOT
BRANCH   1   2
ATOM      2  C13 UNL     1     147.692 164.731 168.552  0.00  0.00    +0.000 A 
ATOM      3  C14 UNL     1     147.795 164.970 169.897  0.00  0.00    +0.000 A 
ATOM      4  F1  UNL     1     146.773 164.781 170.764  0.00  0.00    +0.000 F 
ATOM      5  C15 UNL     1     149.043 165.408 170.383  0.00  0.00    +0.000 A 
ATOM      6  C16 UNL     1     150.126 165.598 169.577  0.00  0.00    +0.000 A 
ATOM      7  F2  UNL     1     151.332 166.020 170.096  0.00  0.00    +0.000 F 
ATOM      8  C17 UNL     1     150.015 165.354 168.226  0.00  0.00    +0.000 A 
ATOM      9  C18 UNL     1     148.813 164.927 167.733  0.00  0.00    +0.000 A 
ENDBRANCH   1   2
BRANCH   1  10
ATOM     10  C11 UNL     1     145.882 162.995 168.508  0.00  0.00    +0.000 C 
ATOM     11  C22 UNL     1     144.512 162.720 167.902  0.00  0.00    +0.000 C 
BRANCH  10  13
ATOM     12  S1  UNL     1     146.070 160.396 167.178  0.00  0.00    +0.000 S 
ATOM     13  C1  UNL     1     146.689 161.780 168.314  0.00  0.00    +0.000 A 
ATOM     14  N1  UNL     1     147.725 161.376 168.632  0.00  0.00    +0.000 NA
ATOM     15  C2  UNL     1     148.311 160.228 168.275  0.00  0.00    +0.000 A 
ATOM     16  C3  UNL     1     147.618 159.478 167.468  0.00  0.00    +0.000 A 
BRANCH  15  17
ATOM     17  C4  UNL     1     149.691 159.897 168.738  0.00  0.00    +0.000 A 
ATOM     18  C5  UNL     1     149.910 158.796 169.538  0.00  0.00    +0.000 A 
ATOM     19  C6  UNL     1     151.177 158.420 169.936  0.00  0.00    +0.000 A 
ATOM     20  C7  UNL     1     152.276 159.149 169.537  0.00  0.00    +0.000 A 
ATOM     21  C9  UNL     1     152.059 160.254 168.738  0.00  0.00    +0.000 A 
ATOM     22  C10 UNL     1     150.802 160.606 168.358  0.00  0.00    +0.000 A 
BRANCH  20  23
ATOM     23  C8  UNL     1     153.638 158.792 169.878  0.00  0.00    +0.000 C 
ATOM     24  N2  UNL     1     154.716 158.501 170.137  0.00  0.00    +0.000 NA
ENDBRANCH  20  23
ENDBRANCH  15  17
ENDBRANCH  10  13
ENDBRANCH   1  10
BRANCH   1  25
ATOM     25  O1  UNL     1     145.438 165.225 168.544  0.00  0.00    +0.000 OA
ATOM     26  H7  UNL     1     144.768 164.657 168.996  0.00  0.00    +0.000 HD
ENDBRANCH   1  25
BRANCH   1  27
ATOM     27  C19 UNL     1     146.302 164.469 166.501  0.00  0.00    +0.000 C 
BRANCH  27  28
ATOM     28  N3  UNL     1     145.642 165.721 166.121  0.00  0.00    +0.000 N 
ATOM     29  N4  UNL     1     146.099 166.958 166.138  0.00  0.00    +0.000 NA
ATOM     30  C20 UNL     1     145.160 167.813 165.706  0.00  0.00    +0.000 A 
ATOM     31  N5  UNL     1     144.086 167.027 165.418  0.00  0.00    +0.000 NA
ATOM     32  C21 UNL     1     144.371 165.740 165.672  0.00  0.00    +0.000 A 
ENDBRANCH  27  28
ENDBRANCH   1  27
TORSDOF 8
ENDMDL
MODEL 2
REMARK VINA RESULT:      -6.3      4.522      8.181
REMARK  Name = ./3D_structures\o13_MMV1634362_3D.pdb
REMARK  9 active torsions:
REMARK  status: ('A' for Active; 'I' for Inactive)
REMARK    1  A    between atoms: C1_2  and  C11_14
REMARK    2  A    between atoms: C2_4  and  C4_6
REMARK    3  A    between atoms: C7_9  and  C8_10
REMARK    4  A    between atoms: C11_14  and  C12_15
REMARK    5  A    between atoms: C11_14  and  C22_31
REMARK    6  A    between atoms: C12_15  and  O1_16
REMARK    7  A    between atoms: C12_15  and  C13_17
REMARK    8  A    between atoms: C12_15  and  C19_25
REMARK    9  A    between atoms: C19_25  and  N3_26
REMARK                            x       y       z     vdW  Elec       q    Type
REMARK                         _______ _______ _______ _____ _____    ______ ____
ROOT
ATOM      1  C12 UNL     1     149.894 164.150 167.568  0.00  0.00    +0.000 C 
ENDROOT
BRANCH   1   2
ATOM      2  C13 UNL     1     150.766 163.167 166.833  0.00  0.00    +0.000 A 
ATOM      3  C14 UNL     1     150.598 161.825 167.045  0.00  0.00    +0.000 A 
ATOM      4  F1  UNL     1     149.641 161.316 167.857  0.00  0.00    +0.000 F 
ATOM      5  C15 UNL     1     151.458 160.947 166.355  0.00  0.00    +0.000 A 
ATOM      6  C16 UNL     1     152.429 161.381 165.502  0.00  0.00    +0.000 A 
ATOM      7  F2  UNL     1     153.244 160.487 164.840  0.00  0.00    +0.000 F 
ATOM      8  C17 UNL     1     152.591 162.733 165.293  0.00  0.00    +0.000 A 
ATOM      9  C18 UNL     1     151.767 163.602 165.952  0.00  0.00    +0.000 A 
ENDBRANCH   1   2
BRANCH   1  10
ATOM     10  C11 UNL     1     150.126 165.566 167.188  0.00  0.00    +0.000 C 
ATOM     11  C22 UNL     1     148.792 166.169 166.766  0.00  0.00    +0.000 C 
BRANCH  10  13
ATOM     12  S1  UNL     1     152.594 166.478 168.467  0.00  0.00    +0.000 S 
ATOM     13  C1  UNL     1     150.723 166.489 168.165  0.00  0.00    +0.000 A 
ATOM     14  N1  UNL     1     150.381 167.354 168.853  0.00  0.00    +0.000 NA
ATOM     15  C2  UNL     1     151.131 168.131 169.642  0.00  0.00    +0.000 A 
ATOM     16  C3  UNL     1     152.406 167.870 169.629  0.00  0.00    +0.000 A 
BRANCH  15  17
ATOM     17  C4  UNL     1     150.519 169.250 170.417  0.00  0.00    +0.000 A 
ATOM     18  C5  UNL     1     149.949 169.012 171.650  0.00  0.00    +0.000 A 
ATOM     19  C6  UNL     1     149.429 170.028 172.426  0.00  0.00    +0.000 A 
ATOM     20  C7  UNL     1     149.466 171.331 171.980  0.00  0.00    +0.000 A 
ATOM     21  C9  UNL     1     150.034 171.572 170.744  0.00  0.00    +0.000 A 
ATOM     22  C10 UNL     1     150.541 170.556 169.997  0.00  0.00    +0.000 A 
BRANCH  20  23
ATOM     23  C8  UNL     1     148.981 172.454 172.756  0.00  0.00    +0.000 C 
ATOM     24  N2  UNL     1     148.586 173.345 173.360  0.00  0.00    +0.000 NA
ENDBRANCH  20  23
ENDBRANCH  15  17
ENDBRANCH  10  13
ENDBRANCH   1  10
BRANCH   1  25
ATOM     25  O1  UNL     1     148.586 163.900 167.021  0.00  0.00    +0.000 OA
ATOM     26  H7  UNL     1     148.662 163.008 166.604  0.00  0.00    +0.000 HD
ENDBRANCH   1  25
BRANCH   1  27
ATOM     27  C19 UNL     1     149.803 163.861 169.023  0.00  0.00    +0.000 C 
BRANCH  27  28
ATOM     28  N3  UNL     1     148.426 163.920 169.521  0.00  0.00    +0.000 N 
ATOM     29  N4  UNL     1     147.456 163.031 169.433  0.00  0.00    +0.000 NA
ATOM     30  C20 UNL     1     146.343 163.488 170.026  0.00  0.00    +0.000 A 
ATOM     31  N5  UNL     1     146.684 164.722 170.491  0.00  0.00    +0.000 NA
ATOM     32  C21 UNL     1     147.961 164.997 170.184  0.00  0.00    +0.000 A 
ENDBRANCH  27  28
ENDBRANCH   1  27
TORSDOF 8
ENDMDL
MODEL 3
REMARK VINA RESULT:      -6.2      3.713      5.730
REMARK  Name = ./3D_structures\o13_MMV1634362_3D.pdb
REMARK  9 active torsions:
REMARK  status: ('A' for Active; 'I' for Inactive)
REMARK    1  A    between atoms: C1_2  and  C11_14
REMARK    2  A    between atoms: C2_4  and  C4_6
REMARK    3  A    between atoms: C7_9  and  C8_10
REMARK    4  A    between atoms: C11_14  and  C12_15
REMARK    5  A    between atoms: C11_14  and  C22_31
REMARK    6  A    between atoms: C12_15  and  O1_16
REMARK    7  A    between atoms: C12_15  and  C13_17
REMARK    8  A    between atoms: C12_15  and  C19_25
REMARK    9  A    between atoms: C19_25  and  N3_26
REMARK                            x       y       z     vdW  Elec       q    Type
REMARK                         _______ _______ _______ _____ _____    ______ ____
ROOT
ATOM      1  C12 UNL     1     150.394 162.200 167.839  0.00  0.00    +0.000 C 
ENDROOT
BRANCH   1   2
ATOM      2  C13 UNL     1     150.648 163.311 166.855  0.00  0.00    +0.000 A 
ATOM      3  C14 UNL     1     151.675 163.195 165.956  0.00  0.00    +0.000 A 
ATOM      4  F1  UNL     1     152.462 162.098 165.865  0.00  0.00    +0.000 F 
ATOM      5  C15 UNL     1     151.890 164.275 165.075  0.00  0.00    +0.000 A 
ATOM      6  C16 UNL     1     151.125 165.404 165.089  0.00  0.00    +0.000 A 
ATOM      7  F2  UNL     1     151.364 166.433 164.204  0.00  0.00    +0.000 F 
ATOM      8  C17 UNL     1     150.094 165.511 165.995  0.00  0.00    +0.000 A 
ATOM      9  C18 UNL     1     149.867 164.476 166.858  0.00  0.00    +0.000 A 
ENDBRANCH   1   2
BRANCH   1  10
ATOM     10  C11 UNL     1     151.492 161.998 168.818  0.00  0.00    +0.000 C 
ATOM     11  C22 UNL     1     150.997 162.450 170.187  0.00  0.00    +0.000 C 
BRANCH  10  13
ATOM     12  S1  UNL     1     151.262 159.420 170.183  0.00  0.00    +0.000 S 
ATOM     13  C1  UNL     1     152.067 160.655 168.993  0.00  0.00    +0.000 A 
ATOM     14  N1  UNL     1     152.926 160.023 168.545  0.00  0.00    +0.000 NA
ATOM     15  C2  UNL     1     153.244 158.752 168.813  0.00  0.00    +0.000 A 
ATOM     16  C3  UNL     1     152.486 158.162 169.691  0.00  0.00    +0.000 A 
BRANCH  15  17
ATOM     17  C4  UNL     1     154.357 158.073 168.086  0.00  0.00    +0.000 A 
ATOM     18  C5  UNL     1     154.461 158.181 166.715  0.00  0.00    +0.000 A 
ATOM     19  C6  UNL     1     155.508 157.621 166.013  0.00  0.00    +0.000 A 
ATOM     20  C7  UNL     1     156.496 156.926 166.675  0.00  0.00    +0.000 A 
ATOM     21  C9  UNL     1     156.394 156.813 168.048  0.00  0.00    +0.000 A 
ATOM     22  C10 UNL     1     155.353 157.373 168.719  0.00  0.00    +0.000 A 
BRANCH  20  23
ATOM     23  C8  UNL     1     157.647 156.348 166.012  0.00  0.00    +0.000 C 
ATOM     24  N2  UNL     1     158.550 155.883 165.479  0.00  0.00    +0.000 NA
ENDBRANCH  20  23
ENDBRANCH  15  17
ENDBRANCH  10  13
ENDBRANCH   1  10
BRANCH   1  25
ATOM     25  O1  UNL     1     149.344 162.731 168.668  0.00  0.00    +0.000 OA
ATOM     26  H7  UNL     1     148.666 162.013 168.693  0.00  0.00    +0.000 HD
ENDBRANCH   1  25
BRANCH   1  27
ATOM     27  C19 UNL     1     149.846 160.977 167.197  0.00  0.00    +0.000 C 
BRANCH  27  28
ATOM     28  N3  UNL     1     148.429 160.770 167.507  0.00  0.00    +0.000 N 
ATOM     29  N4  UNL     1     147.376 161.489 167.175  0.00  0.00    +0.000 NA
ATOM     30  C20 UNL     1     146.255 160.942 167.669  0.00  0.00    +0.000 A 
ATOM     31  N5  UNL     1     146.680 159.831 168.332  0.00  0.00    +0.000 NA
ATOM     32  C21 UNL     1     148.015 159.717 168.241  0.00  0.00    +0.000 A 
ENDBRANCH  27  28
ENDBRANCH   1  27
TORSDOF 8
ENDMDL
MODEL 4
REMARK VINA RESULT:      -6.2      4.170      5.928
REMARK  Name = ./3D_structures\o13_MMV1634362_3D.pdb
REMARK  9 active torsions:
REMARK  status: ('A' for Active; 'I' for Inactive)
REMARK    1  A    between atoms: C1_2  and  C11_14
REMARK    2  A    between atoms: C2_4  and  C4_6
REMARK    3  A    between atoms: C7_9  and  C8_10
REMARK    4  A    between atoms: C11_14  and  C12_15
REMARK    5  A    between atoms: C11_14  and  C22_31
REMARK    6  A    between atoms: C12_15  and  O1_16
REMARK    7  A    between atoms: C12_15  and  C13_17
REMARK    8  A    between atoms: C12_15  and  C19_25
REMARK    9  A    between atoms: C19_25  and  N3_26
REMARK                            x       y       z     vdW  Elec       q    Type
REMARK                         _______ _______ _______ _____ _____    ______ ____
ROOT
ATOM      1  C12 UNL     1     150.332 165.061 166.943  0.00  0.00    +0.000 C 
ENDROOT
BRANCH   1   2
ATOM      2  C13 UNL     1     148.843 164.831 166.956  0.00  0.00    +0.000 A 
ATOM      3  C14 UNL     1     148.358 163.562 167.127  0.00  0.00    +0.000 A 
ATOM      4  F1  UNL     1     149.151 162.486 167.339  0.00  0.00    +0.000 F 
ATOM      5  C15 UNL     1     146.958 163.396 167.101  0.00  0.00    +0.000 A 
ATOM      6  C16 UNL     1     146.093 164.433 166.917  0.00  0.00    +0.000 A 
ATOM      7  F2  UNL     1     144.730 164.227 166.908  0.00  0.00    +0.000 F 
ATOM      8  C17 UNL     1     146.590 165.706 166.747  0.00  0.00    +0.000 A 
ATOM      9  C18 UNL     1     147.944 165.891 166.769  0.00  0.00    +0.000 A 
ENDBRANCH   1   2
BRANCH   1  10
ATOM     10  C11 UNL     1     150.993 164.670 165.674  0.00  0.00    +0.000 C 
ATOM     11  C22 UNL     1     151.080 165.903 164.783  0.00  0.00    +0.000 C 
BRANCH  10  13
ATOM     12  S1  UNL     1     153.853 165.159 166.054  0.00  0.00    +0.000 S 
ATOM     13  C1  UNL     1     152.337 164.074 165.712  0.00  0.00    +0.000 A 
ATOM     14  N1  UNL     1     152.815 163.022 165.641  0.00  0.00    +0.000 NA
ATOM     15  C2  UNL     1     154.103 162.687 165.773  0.00  0.00    +0.000 A 
ATOM     16  C3  UNL     1     154.914 163.677 166.009  0.00  0.00    +0.000 A 
BRANCH  15  17
ATOM     17  C4  UNL     1     154.531 161.258 165.712  0.00  0.00    +0.000 A 
ATOM     18  C5  UNL     1     155.715 160.913 165.094  0.00  0.00    +0.000 A 
ATOM     19  C6  UNL     1     156.177 159.614 165.070  0.00  0.00    +0.000 A 
ATOM     20  C7  UNL     1     155.455 158.607 165.674  0.00  0.00    +0.000 A 
ATOM     21  C9  UNL     1     154.267 158.950 166.291  0.00  0.00    +0.000 A 
ATOM     22  C10 UNL     1     153.831 160.237 166.302  0.00  0.00    +0.000 A 
BRANCH  20  23
ATOM     23  C8  UNL     1     155.896 157.229 165.727  0.00  0.00    +0.000 C 
ATOM     24  N2  UNL     1     156.237 156.135 165.780  0.00  0.00    +0.000 NA
ENDBRANCH  20  23
ENDBRANCH  15  17
ENDBRANCH  10  13
ENDBRANCH   1  10
BRANCH   1  25
ATOM     25  O1  UNL     1     150.441 166.496 166.911  0.00  0.00    +0.000 OA
ATOM     26  H7  UNL     1     151.360 166.664 166.590  0.00  0.00    +0.000 HD
ENDBRANCH   1  25
BRANCH   1  27
ATOM     27  C19 UNL     1     150.992 164.617 168.199  0.00  0.00    +0.000 C 
BRANCH  27  28
ATOM     28  N3  UNL     1     150.423 165.259 169.387  0.00  0.00    +0.000 N 
ATOM     29  N4  UNL     1     150.350 166.536 169.706  0.00  0.00    +0.000 NA
ATOM     30  C20 UNL     1     149.749 166.691 170.895  0.00  0.00    +0.000 A 
ATOM     31  N5  UNL     1     149.449 165.425 171.297  0.00  0.00    +0.000 NA
ATOM     32  C21 UNL     1     149.862 164.537 170.378  0.00  0.00    +0.000 A 
ENDBRANCH  27  28
ENDBRANCH   1  27
TORSDOF 8
ENDMDL
MODEL 5
REMARK VINA RESULT:      -6.1      3.726      5.595
REMARK  Name = ./3D_structures\o13_MMV1634362_3D.pdb
REMARK  9 active torsions:
REMARK  status: ('A' for Active; 'I' for Inactive)
REMARK    1  A    between atoms: C1_2  and  C11_14
REMARK    2  A    between atoms: C2_4  and  C4_6
REMARK    3  A    between atoms: C7_9  and  C8_10
REMARK    4  A    between atoms: C11_14  and  C12_15
REMARK    5  A    between atoms: C11_14  and  C22_31
REMARK    6  A    between atoms: C12_15  and  O1_16
REMARK    7  A    between atoms: C12_15  and  C13_17
REMARK    8  A    between atoms: C12_15  and  C19_25
REMARK    9  A    between atoms: C19_25  and  N3_26
REMARK                            x       y       z     vdW  Elec       q    Type
REMARK                         _______ _______ _______ _____ _____    ______ ____
ROOT
ATOM      1  C12 UNL     1     150.335 162.339 168.128  0.00  0.00    +0.000 C 
ENDROOT
BRANCH   1   2
ATOM      2  C13 UNL     1     149.135 163.195 168.437  0.00  0.00    +0.000 A 
ATOM      3  C14 UNL     1     149.079 163.875 169.624  0.00  0.00    +0.000 A 
ATOM      4  F1  UNL     1     150.080 163.863 170.534  0.00  0.00    +0.000 F 
ATOM      5  C15 UNL     1     147.921 164.639 169.878  0.00  0.00    +0.000 A 
ATOM      6  C16 UNL     1     146.881 164.720 169.000  0.00  0.00    +0.000 A 
ATOM      7  F2  UNL     1     145.771 165.486 169.285  0.00  0.00    +0.000 F 
ATOM      8  C17 UNL     1     146.947 164.034 167.808  0.00  0.00    +0.000 A 
ATOM      9  C18 UNL     1     148.061 163.288 167.540  0.00  0.00    +0.000 A 
ENDBRANCH   1   2
BRANCH   1  10
ATOM     10  C11 UNL     1     150.555 161.234 169.094  0.00  0.00    +0.000 C 
ATOM     11  C22 UNL     1     149.629 160.084 168.719  0.00  0.00    +0.000 C 
BRANCH  10  13
ATOM     12  S1  UNL     1     152.814 160.813 170.905  0.00  0.00    +0.000 S 
ATOM     13  C1  UNL     1     151.903 160.667 169.250  0.00  0.00    +0.000 A 
ATOM     14  N1  UNL     1     152.651 160.043 168.626  0.00  0.00    +0.000 NA
ATOM     15  C2  UNL     1     153.841 159.561 169.000  0.00  0.00    +0.000 A 
ATOM     16  C3  UNL     1     154.193 159.835 170.222  0.00  0.00    +0.000 A 
BRANCH  15  17
ATOM     17  C4  UNL     1     154.650 158.716 168.072  0.00  0.00    +0.000 A 
ATOM     18  C5  UNL     1     155.693 157.955 168.556  0.00  0.00    +0.000 A 
ATOM     19  C6  UNL     1     156.425 157.114 167.743  0.00  0.00    +0.000 A 
ATOM     20  C7  UNL     1     156.127 157.011 166.401  0.00  0.00    +0.000 A 
ATOM     21  C9  UNL     1     155.085 157.774 165.914  0.00  0.00    +0.000 A 
ATOM     22  C10 UNL     1     154.377 158.596 166.733  0.00  0.00    +0.000 A 
BRANCH  20  23
ATOM     23  C8  UNL     1     156.822 156.118 165.496  0.00  0.00    +0.000 C 
ATOM     24  N2  UNL     1     157.372 155.422 164.770  0.00  0.00    +0.000 NA
ENDBRANCH  20  23
ENDBRANCH  15  17
ENDBRANCH  10  13
ENDBRANCH   1  10
BRANCH   1  25
ATOM     25  O1  UNL     1     149.934 161.628 166.942  0.00  0.00    +0.000 OA
ATOM     26  H7  UNL     1     150.555 160.861 166.896  0.00  0.00    +0.000 HD
ENDBRANCH   1  25
BRANCH   1  27
ATOM     27  C19 UNL     1     151.531 163.139 167.754  0.00  0.00    +0.000 C 
BRANCH  27  28
ATOM     28  N3  UNL     1     151.725 163.211 166.303  0.00  0.00    +0.000 N 
ATOM     29  N4  UNL     1     152.232 162.321 165.473  0.00  0.00    +0.000 NA
ATOM     30  C20 UNL     1     152.228 162.792 164.217  0.00  0.00    +0.000 A 
ATOM     31  N5  UNL     1     151.683 164.037 164.319  0.00  0.00    +0.000 NA
ATOM     32  C21 UNL     1     151.373 164.304 165.598  0.00  0.00    +0.000 A 
ENDBRANCH  27  28
ENDBRANCH   1  27
TORSDOF 8
ENDMDL
MODEL 6
REMARK VINA RESULT:      -6.1      8.199     12.342
REMARK  Name = ./3D_structures\o13_MMV1634362_3D.pdb
REMARK  9 active torsions:
REMARK  status: ('A' for Active; 'I' for Inactive)
REMARK    1  A    between atoms: C1_2  and  C11_14
REMARK    2  A    between atoms: C2_4  and  C4_6
REMARK    3  A    between atoms: C7_9  and  C8_10
REMARK    4  A    between atoms: C11_14  and  C12_15
REMARK    5  A    between atoms: C11_14  and  C22_31
REMARK    6  A    between atoms: C12_15  and  O1_16
REMARK    7  A    between atoms: C12_15  and  C13_17
REMARK    8  A    between atoms: C12_15  and  C19_25
REMARK    9  A    between atoms: C19_25  and  N3_26
REMARK                            x       y       z     vdW  Elec       q    Type
REMARK                         _______ _______ _______ _____ _____    ______ ____
ROOT
ATOM      1  C12 UNL     1     156.727 157.511 166.610  0.00  0.00    +0.000 C 
ENDROOT
BRANCH   1   2
ATOM      2  C13 UNL     1     156.665 157.694 168.104  0.00  0.00    +0.000 A 
ATOM      3  C14 UNL     1     157.628 158.438 168.733  0.00  0.00    +0.000 A 
ATOM      4  F1  UNL     1     158.624 159.074 168.073  0.00  0.00    +0.000 F 
ATOM      5  C15 UNL     1     157.541 158.555 170.135  0.00  0.00    +0.000 A 
ATOM      6  C16 UNL     1     156.554 157.965 170.867  0.00  0.00    +0.000 A 
ATOM      7  F2  UNL     1     156.503 158.112 172.237  0.00  0.00    +0.000 F 
ATOM      8  C17 UNL     1     155.590 157.220 170.226  0.00  0.00    +0.000 A 
ATOM      9  C18 UNL     1     155.654 157.094 168.867  0.00  0.00    +0.000 A 
ENDBRANCH   1   2
BRANCH   1  10
ATOM     10  C11 UNL     1     157.734 156.515 166.164  0.00  0.00    +0.000 C 
ATOM     11  C22 UNL     1     157.144 155.734 164.996  0.00  0.00    +0.000 C 
BRANCH  10  13
ATOM     12  S1  UNL     1     159.423 157.328 163.917  0.00  0.00    +0.000 S 
ATOM     13  C1  UNL     1     159.067 156.972 165.744  0.00  0.00    +0.000 A 
ATOM     14  N1  UNL     1     160.071 157.266 166.239  0.00  0.00    +0.000 NA
ATOM     15  C2  UNL     1     161.178 157.734 165.652  0.00  0.00    +0.000 A 
ATOM     16  C3  UNL     1     161.106 157.872 164.360  0.00  0.00    +0.000 A 
BRANCH  15  17
ATOM     17  C4  UNL     1     162.369 158.122 166.464  0.00  0.00    +0.000 A 
ATOM     18  C5  UNL     1     162.705 159.451 166.614  0.00  0.00    +0.000 A 
ATOM     19  C6  UNL     1     163.760 159.855 167.406  0.00  0.00    +0.000 A 
ATOM     20  C7  UNL     1     164.520 158.923 168.080  0.00  0.00    +0.000 A 
ATOM     21  C9  UNL     1     164.187 157.591 167.929  0.00  0.00    +0.000 A 
ATOM     22  C10 UNL     1     163.143 157.216 167.143  0.00  0.00    +0.000 A 
BRANCH  20  23
ATOM     23  C8  UNL     1     165.614 159.273 168.962  0.00  0.00    +0.000 C 
ATOM     24  N2  UNL     1     166.489 159.547 169.651  0.00  0.00    +0.000 NA
ENDBRANCH  20  23
ENDBRANCH  15  17
ENDBRANCH  10  13
ENDBRANCH   1  10
BRANCH   1  25
ATOM     25  O1  UNL     1     155.488 156.843 166.310  0.00  0.00    +0.000 OA
ATOM     26  H7  UNL     1     154.884 157.569 166.017  0.00  0.00    +0.000 HD
ENDBRANCH   1  25
BRANCH   1  27
ATOM     27  C19 UNL     1     156.699 158.801 165.872  0.00  0.00    +0.000 C 
BRANCH  27  28
ATOM     28  N3  UNL     1     155.488 159.577 166.148  0.00  0.00    +0.000 N 
ATOM     29  N4  UNL     1     154.225 159.297 165.891  0.00  0.00    +0.000 NA
ATOM     30  C20 UNL     1     153.426 160.289 166.311  0.00  0.00    +0.000 A 
ATOM     31  N5  UNL     1     154.275 161.208 166.849  0.00  0.00    +0.000 NA
ATOM     32  C21 UNL     1     155.544 160.781 166.751  0.00  0.00    +0.000 A 
ENDBRANCH  27  28
ENDBRANCH   1  27
TORSDOF 8
ENDMDL
MODEL 7
REMARK VINA RESULT:      -6.0      8.938     12.537
REMARK  Name = ./3D_structures\o13_MMV1634362_3D.pdb
REMARK  9 active torsions:
REMARK  status: ('A' for Active; 'I' for Inactive)
REMARK    1  A    between atoms: C1_2  and  C11_14
REMARK    2  A    between atoms: C2_4  and  C4_6
REMARK    3  A    between atoms: C7_9  and  C8_10
REMARK    4  A    between atoms: C11_14  and  C12_15
REMARK    5  A    between atoms: C11_14  and  C22_31
REMARK    6  A    between atoms: C12_15  and  O1_16
REMARK    7  A    between atoms: C12_15  and  C13_17
REMARK    8  A    between atoms: C12_15  and  C19_25
REMARK    9  A    between atoms: C19_25  and  N3_26
REMARK                            x       y       z     vdW  Elec       q    Type
REMARK                         _______ _______ _______ _____ _____    ______ ____
ROOT
ATOM      1  C12 UNL     1     157.239 157.929 166.254  0.00  0.00    +0.000 C 
ENDROOT
BRANCH   1   2
ATOM      2  C13 UNL     1     156.160 158.969 166.403  0.00  0.00    +0.000 A 
ATOM      3  C14 UNL     1     154.864 158.645 166.104  0.00  0.00    +0.000 A 
ATOM      4  F1  UNL     1     154.478 157.405 165.722  0.00  0.00    +0.000 F 
ATOM      5  C15 UNL     1     153.896 159.662 166.232  0.00  0.00    +0.000 A 
ATOM      6  C16 UNL     1     154.202 160.928 166.635  0.00  0.00    +0.000 A 
ATOM      7  F2  UNL     1     153.223 161.891 166.755  0.00  0.00    +0.000 F 
ATOM      8  C17 UNL     1     155.508 161.245 166.935  0.00  0.00    +0.000 A 
ATOM      9  C18 UNL     1     156.463 160.274 166.819  0.00  0.00    +0.000 A 
ENDBRANCH   1   2
BRANCH   1  10
ATOM     10  C11 UNL     1     157.428 157.450 164.862  0.00  0.00    +0.000 C 
ATOM     11  C22 UNL     1     158.166 158.531 164.083  0.00  0.00    +0.000 C 
BRANCH  10  13
ATOM     12  S1  UNL     1     160.036 156.163 164.538  0.00  0.00    +0.000 S 
ATOM     13  C1  UNL     1     158.143 156.186 164.623  0.00  0.00    +0.000 A 
ATOM     14  N1  UNL     1     157.890 155.063 164.506  0.00  0.00    +0.000 NA
ATOM     15  C2  UNL     1     158.733 154.036 164.355  0.00  0.00    +0.000 A 
ATOM     16  C3  UNL     1     159.996 154.351 164.336  0.00  0.00    +0.000 A 
BRANCH  15  17
ATOM     17  C4  UNL     1     158.225 152.635 164.282  0.00  0.00    +0.000 A 
ATOM     18  C5  UNL     1     156.915 152.387 163.929  0.00  0.00    +0.000 A 
ATOM     19  C6  UNL     1     156.423 151.106 163.789  0.00  0.00    +0.000 A 
ATOM     20  C7  UNL     1     157.243 150.019 164.004  0.00  0.00    +0.000 A 
ATOM     21  C9  UNL     1     158.555 150.264 164.361  0.00  0.00    +0.000 A 
ATOM     22  C10 UNL     1     159.018 151.536 164.492  0.00  0.00    +0.000 A 
BRANCH  20  23
ATOM     23  C8  UNL     1     156.811 148.647 163.835  0.00  0.00    +0.000 C 
ATOM     24  N2  UNL     1     156.456 147.564 163.707  0.00  0.00    +0.000 NA
ENDBRANCH  20  23
ENDBRANCH  15  17
ENDBRANCH  10  13
ENDBRANCH   1  10
BRANCH   1  25
ATOM     25  O1  UNL     1     158.448 158.676 166.484  0.00  0.00    +0.000 OA
ATOM     26  H7  UNL     1     158.821 158.289 167.313  0.00  0.00    +0.000 HD
ENDBRANCH   1  25
BRANCH   1  27
ATOM     27  C19 UNL     1     157.182 156.887 167.312  0.00  0.00    +0.000 C 
BRANCH  27  28
ATOM     28  N3  UNL     1     157.276 157.452 168.660  0.00  0.00    +0.000 N 
ATOM     29  N4  UNL     1     158.254 158.133 169.226  0.00  0.00    +0.000 NA
ATOM     30  C20 UNL     1     157.930 158.464 170.485  0.00  0.00    +0.000 A 
ATOM     31  N5  UNL     1     156.685 157.945 170.668  0.00  0.00    +0.000 NA
ATOM     32  C21 UNL     1     156.275 157.318 169.553  0.00  0.00    +0.000 A 
ENDBRANCH  27  28
ENDBRANCH   1  27
TORSDOF 8
ENDMDL
MODEL 8
REMARK VINA RESULT:      -6.0      4.280      8.216
REMARK  Name = ./3D_structures\o13_MMV1634362_3D.pdb
REMARK  9 active torsions:
REMARK  status: ('A' for Active; 'I' for Inactive)
REMARK    1  A    between atoms: C1_2  and  C11_14
REMARK    2  A    between atoms: C2_4  and  C4_6
REMARK    3  A    between atoms: C7_9  and  C8_10
REMARK    4  A    between atoms: C11_14  and  C12_15
REMARK    5  A    between atoms: C11_14  and  C22_31
REMARK    6  A    between atoms: C12_15  and  O1_16
REMARK    7  A    between atoms: C12_15  and  C13_17
REMARK    8  A    between atoms: C12_15  and  C19_25
REMARK    9  A    between atoms: C19_25  and  N3_26
REMARK                            x       y       z     vdW  Elec       q    Type
REMARK                         _______ _______ _______ _____ _____    ______ ____
ROOT
ATOM      1  C12 UNL     1     146.111 158.539 166.883  0.00  0.00    +0.000 C 
ENDROOT
BRANCH   1   2
ATOM      2  C13 UNL     1     146.153 157.035 166.937  0.00  0.00    +0.000 A 
ATOM      3  C14 UNL     1     145.475 156.375 167.927  0.00  0.00    +0.000 A 
ATOM      4  F1  UNL     1     144.712 157.005 168.850  0.00  0.00    +0.000 F 
ATOM      5  C15 UNL     1     145.570 154.968 167.951  0.00  0.00    +0.000 A 
ATOM      6  C16 UNL     1     146.299 154.261 167.041  0.00  0.00    +0.000 A 
ATOM      7  F2  UNL     1     146.358 152.885 167.096  0.00  0.00    +0.000 F 
ATOM      8  C17 UNL     1     146.977 154.932 166.048  0.00  0.00    +0.000 A 
ATOM      9  C18 UNL     1     146.897 156.296 166.005  0.00  0.00    +0.000 A 
ENDBRANCH   1   2
BRANCH   1  10
ATOM     10  C11 UNL     1     146.775 159.204 168.032  0.00  0.00    +0.000 C 
ATOM     11  C22 UNL     1     147.885 158.289 168.534  0.00  0.00    +0.000 C 
BRANCH  10  13
ATOM     12  S1  UNL     1     149.241 160.779 168.015  0.00  0.00    +0.000 S 
ATOM     13  C1  UNL     1     147.368 160.538 167.851  0.00  0.00    +0.000 A 
ATOM     14  N1  UNL     1     147.020 161.602 167.558  0.00  0.00    +0.000 NA
ATOM     15  C2  UNL     1     147.766 162.698 167.384  0.00  0.00    +0.000 A 
ATOM     16  C3  UNL     1     149.044 162.537 167.572  0.00  0.00    +0.000 A 
BRANCH  15  17
ATOM     17  C4  UNL     1     147.147 163.982 166.940  0.00  0.00    +0.000 A 
ATOM     18  C5  UNL     1     145.780 164.152 167.002  0.00  0.00    +0.000 A 
ATOM     19  C6  UNL     1     145.173 165.343 166.661  0.00  0.00    +0.000 A 
ATOM     20  C7  UNL     1     145.932 166.414 166.241  0.00  0.00    +0.000 A 
ATOM     21  C9  UNL     1     147.302 166.245 166.175  0.00  0.00    +0.000 A 
ATOM     22  C10 UNL     1     147.877 165.062 166.517  0.00  0.00    +0.000 A 
BRANCH  20  23
ATOM     23  C8  UNL     1     145.372 167.708 165.908  0.00  0.00    +0.000 C 
ATOM     24  N2  UNL     1     144.924 168.726 165.632  0.00  0.00    +0.000 NA
ENDBRANCH  20  23
ENDBRANCH  15  17
ENDBRANCH  10  13
ENDBRANCH   1  10
BRANCH   1  25
ATOM     25  O1  UNL     1     147.000 158.853 165.796  0.00  0.00    +0.000 OA
ATOM     26  H7  UNL     1     146.774 158.193 165.096  0.00  0.00    +0.000 HD
ENDBRANCH   1  25
BRANCH   1  27
ATOM     27  C19 UNL     1     144.774 159.062 166.498  0.00  0.00    +0.000 C 
BRANCH  27  28
ATOM     28  N3  UNL     1     144.773 159.663 165.161  0.00  0.00    +0.000 N 
ATOM     29  N4  UNL     1     144.889 159.094 163.978  0.00  0.00    +0.000 NA
ATOM     30  C20 UNL     1     144.838 160.015 163.004  0.00  0.00    +0.000 A 
ATOM     31  N5  UNL     1     144.681 161.199 163.659  0.00  0.00    +0.000 NA
ATOM     32  C21 UNL     1     144.642 160.993 164.986  0.00  0.00    +0.000 A 
ENDBRANCH  27  28
ENDBRANCH   1  27
TORSDOF 8
ENDMDL
MODEL 9
REMARK VINA RESULT:      -6.0      9.040     12.537
REMARK  Name = ./3D_structures\o13_MMV1634362_3D.pdb
REMARK  9 active torsions:
REMARK  status: ('A' for Active; 'I' for Inactive)
REMARK    1  A    between atoms: C1_2  and  C11_14
REMARK    2  A    between atoms: C2_4  and  C4_6
REMARK    3  A    between atoms: C7_9  and  C8_10
REMARK    4  A    between atoms: C11_14  and  C12_15
REMARK    5  A    between atoms: C11_14  and  C22_31
REMARK    6  A    between atoms: C12_15  and  O1_16
REMARK    7  A    between atoms: C12_15  and  C13_17
REMARK    8  A    between atoms: C12_15  and  C19_25
REMARK    9  A    between atoms: C19_25  and  N3_26
REMARK                            x       y       z     vdW  Elec       q    Type
REMARK                         _______ _______ _______ _____ _____    ______ ____
ROOT
ATOM      1  C12 UNL     1     157.499 157.616 166.088  0.00  0.00    +0.000 C 
ENDROOT
BRANCH   1   2
ATOM      2  C13 UNL     1     157.994 158.625 167.091  0.00  0.00    +0.000 A 
ATOM      3  C14 UNL     1     158.167 159.928 166.707  0.00  0.00    +0.000 A 
ATOM      4  F1  UNL     1     157.867 160.384 165.469  0.00  0.00    +0.000 F 
ATOM      5  C15 UNL     1     158.661 160.827 167.675  0.00  0.00    +0.000 A 
ATOM      6  C16 UNL     1     158.964 160.450 168.949  0.00  0.00    +0.000 A 
ATOM      7  F2  UNL     1     159.436 161.364 169.866  0.00  0.00    +0.000 F 
ATOM      8  C17 UNL     1     158.785 159.137 169.326  0.00  0.00    +0.000 A 
ATOM      9  C18 UNL     1     158.307 158.248 168.405  0.00  0.00    +0.000 A 
ENDBRANCH   1   2
BRANCH   1  10
ATOM     10  C11 UNL     1     158.464 157.321 165.000  0.00  0.00    +0.000 C 
ATOM     11  C22 UNL     1     159.803 156.968 165.635  0.00  0.00    +0.000 C 
BRANCH  10  13
ATOM     12  S1  UNL     1     158.288 156.601 162.169  0.00  0.00    +0.000 S 
ATOM     13  C1  UNL     1     158.157 156.260 164.029  0.00  0.00    +0.000 A 
ATOM     14  N1  UNL     1     157.876 155.137 164.041  0.00  0.00    +0.000 NA
ATOM     15  C2  UNL     1     157.699 154.317 163.000  0.00  0.00    +0.000 A 
ATOM     16  C3  UNL     1     157.864 154.861 161.829  0.00  0.00    +0.000 A 
BRANCH  15  17
ATOM     17  C4  UNL     1     157.398 152.870 163.209  0.00  0.00    +0.000 A 
ATOM     18  C5  UNL     1     156.539 152.208 162.356  0.00  0.00    +0.000 A 
ATOM     19  C6  UNL     1     156.283 150.858 162.477  0.00  0.00    +0.000 A 
ATOM     20  C7  UNL     1     156.889 150.121 163.471  0.00  0.00    +0.000 A 
ATOM     21  C9  UNL     1     157.747 150.782 164.329  0.00  0.00    +0.000 A 
ATOM     22  C10 UNL     1     157.985 152.114 164.191  0.00  0.00    +0.000 A 
BRANCH  20  23
ATOM     23  C8  UNL     1     156.703 148.694 163.634  0.00  0.00    +0.000 C 
ATOM     24  N2  UNL     1     156.568 147.562 163.756  0.00  0.00    +0.000 NA
ENDBRANCH  20  23
ENDBRANCH  15  17
ENDBRANCH  10  13
ENDBRANCH   1  10
BRANCH   1  25
ATOM     25  O1  UNL     1     157.500 156.385 166.835  0.00  0.00    +0.000 OA
ATOM     26  H7  UNL     1     157.385 156.669 167.774  0.00  0.00    +0.000 HD
ENDBRANCH   1  25
BRANCH   1  27
ATOM     27  C19 UNL     1     156.091 157.857 165.678  0.00  0.00    +0.000 C 
BRANCH  27  28
ATOM     28  N3  UNL     1     155.180 157.937 166.823  0.00  0.00    +0.000 N 
ATOM     29  N4  UNL     1     154.921 157.049 167.762  0.00  0.00    +0.000 NA
ATOM     30  C20 UNL     1     154.016 157.528 168.628  0.00  0.00    +0.000 A 
ATOM     31  N5  UNL     1     153.727 158.776 168.167  0.00  0.00    +0.000 NA
ATOM     32  C21 UNL     1     154.435 159.036 167.056  0.00  0.00    +0.000 A 
ENDBRANCH  27  28
ENDBRANCH   1  27
TORSDOF 8
ENDMDL
