MODEL 1
REMARK VINA RESULT:      -5.9      0.000      0.000
REMARK  Name = ./3D_structures\o17_MMV003143_3D.pdb
REMARK  4 active torsions:
REMARK  status: ('A' for Active; 'I' for Inactive)
REMARK    1  A    between atoms: S1_1  and  C1_2
REMARK    2  A    between atoms: S1_1  and  C10_16
REMARK    3  A    between atoms: C6_10  and  O2_12
REMARK    4  A    between atoms: O2_12  and  C7_13
REMARK                            x       y       z     vdW  Elec       q    Type
REMARK                         _______ _______ _______ _____ _____    ______ ____
ROOT
ATOM      1  C1  UNL     1     153.992 159.032 167.319  0.00  0.00    +0.000 A 
ATOM      2  C2  UNL     1     153.086 159.865 167.936  0.00  0.00    +0.000 A 
ATOM      3  C3  UNL     1     152.572 160.998 167.292  0.00  0.00    +0.000 A 
ATOM      4  C4  UNL     1     152.956 161.319 166.017  0.00  0.00    +0.000 A 
ATOM      5  N1  UNL     1     152.317 162.439 165.650  0.00  0.00    +0.000 N 
ATOM      6  C5  UNL     1     151.535 162.852 166.643  0.00  0.00    +0.000 A 
ATOM      7  N2  UNL     1     151.705 161.950 167.651  0.00  0.00    +0.000 NA
ATOM      8  N3  UNL     1     150.693 163.990 166.671  0.00  0.00    +0.000 N 
ATOM      9  C6  UNL     1     150.555 164.888 165.604  0.00  0.00    +0.000 C 
ATOM     10  O1  UNL     1     151.185 164.728 164.545  0.00  0.00    +0.000 OA
ATOM     11  C8  UNL     1     153.875 160.477 165.385  0.00  0.00    +0.000 A 
ATOM     12  C9  UNL     1     154.366 159.371 166.035  0.00  0.00    +0.000 A 
ATOM     13  H2  UNL     1     152.469 162.867 164.693  0.00  0.00    +0.000 HD
ATOM     14  H3  UNL     1     150.139 164.178 167.532  0.00  0.00    +0.000 HD
ENDROOT
BRANCH   9  15
ATOM     15  O2  UNL     1     149.705 166.010 165.673  0.00  0.00    +0.000 OA
ATOM     16  C7  UNL     1     148.517 165.919 166.436  0.00  0.00    +0.000 C 
ENDBRANCH   9  15
BRANCH   1  17
ATOM     17  S1  UNL     1     154.695 157.586 168.043  0.00  0.00    +0.000 S 
BRANCH  17  18
ATOM     18  C10 UNL     1     155.933 157.954 169.264  0.00  0.00    +0.000 A 
ATOM     19  C11 UNL     1     157.261 158.017 168.894  0.00  0.00    +0.000 A 
ATOM     20  C12 UNL     1     158.269 158.302 169.821  0.00  0.00    +0.000 A 
ATOM     21  C13 UNL     1     157.932 158.528 171.139  0.00  0.00    +0.000 A 
ATOM     22  C14 UNL     1     156.609 158.472 171.539  0.00  0.00    +0.000 A 
ATOM     23  C15 UNL     1     155.635 158.185 170.591  0.00  0.00    +0.000 A 
ENDBRANCH  17  18
ENDBRANCH   1  17
TORSDOF 3
ENDMDL
MODEL 2
REMARK VINA RESULT:      -5.7      2.867      4.219
REMARK  Name = ./3D_structures\o17_MMV003143_3D.pdb
REMARK  4 active torsions:
REMARK  status: ('A' for Active; 'I' for Inactive)
REMARK    1  A    between atoms: S1_1  and  C1_2
REMARK    2  A    between atoms: S1_1  and  C10_16
REMARK    3  A    between atoms: C6_10  and  O2_12
REMARK    4  A    between atoms: O2_12  and  C7_13
REMARK                            x       y       z     vdW  Elec       q    Type
REMARK                         _______ _______ _______ _____ _____    ______ ____
ROOT
ATOM      1  C1  UNL     1     151.068 161.155 168.861  0.00  0.00    +0.000 A 
ATOM      2  C2  UNL     1     151.203 162.494 168.569  0.00  0.00    +0.000 A 
ATOM      3  C3  UNL     1     150.158 163.230 167.995  0.00  0.00    +0.000 A 
ATOM      4  C4  UNL     1     148.957 162.641 167.704  0.00  0.00    +0.000 A 
ATOM      5  N1  UNL     1     148.147 163.567 167.170  0.00  0.00    +0.000 N 
ATOM      6  C5  UNL     1     148.784 164.732 167.106  0.00  0.00    +0.000 A 
ATOM      7  N2  UNL     1     150.026 164.507 167.620  0.00  0.00    +0.000 NA
ATOM      8  N3  UNL     1     148.294 165.964 166.610  0.00  0.00    +0.000 N 
ATOM      9  C6  UNL     1     147.004 166.142 166.091  0.00  0.00    +0.000 C 
ATOM     10  O1  UNL     1     146.199 165.197 166.037  0.00  0.00    +0.000 OA
ATOM     11  C8  UNL     1     148.813 161.282 168.000  0.00  0.00    +0.000 A 
ATOM     12  C9  UNL     1     149.850 160.579 168.561  0.00  0.00    +0.000 A 
ATOM     13  H2  UNL     1     147.161 163.322 166.870  0.00  0.00    +0.000 HD
ATOM     14  H3  UNL     1     148.922 166.794 166.629  0.00  0.00    +0.000 HD
ENDROOT
BRANCH   9  15
ATOM     15  O2  UNL     1     146.555 167.387 165.607  0.00  0.00    +0.000 OA
ATOM     16  C7  UNL     1     145.180 167.702 165.708  0.00  0.00    +0.000 C 
ENDBRANCH   9  15
BRANCH   1  17
ATOM     17  S1  UNL     1     152.320 160.144 169.580  0.00  0.00    +0.000 S 
BRANCH  17  18
ATOM     18  C10 UNL     1     153.306 159.294 168.369  0.00  0.00    +0.000 A 
ATOM     19  C11 UNL     1     153.411 159.804 167.091  0.00  0.00    +0.000 A 
ATOM     20  C12 UNL     1     154.174 159.168 166.107  0.00  0.00    +0.000 A 
ATOM     21  C13 UNL     1     154.842 158.002 166.417  0.00  0.00    +0.000 A 
ATOM     22  C14 UNL     1     154.756 157.468 167.689  0.00  0.00    +0.000 A 
ATOM     23  C15 UNL     1     153.988 158.125 168.642  0.00  0.00    +0.000 A 
ENDBRANCH  17  18
ENDBRANCH   1  17
TORSDOF 3
ENDMDL
MODEL 3
REMARK VINA RESULT:      -5.7      6.280      8.020
REMARK  Name = ./3D_structures\o17_MMV003143_3D.pdb
REMARK  4 active torsions:
REMARK  status: ('A' for Active; 'I' for Inactive)
REMARK    1  A    between atoms: S1_1  and  C1_2
REMARK    2  A    between atoms: S1_1  and  C10_16
REMARK    3  A    between atoms: C6_10  and  O2_12
REMARK    4  A    between atoms: O2_12  and  C7_13
REMARK                            x       y       z     vdW  Elec       q    Type
REMARK                         _______ _______ _______ _____ _____    ______ ____
ROOT
ATOM      1  C1  UNL     1     155.297 158.655 169.003  0.00  0.00    +0.000 A 
ATOM      2  C2  UNL     1     154.909 158.190 167.766  0.00  0.00    +0.000 A 
ATOM      3  C3  UNL     1     155.748 157.381 166.988  0.00  0.00    +0.000 A 
ATOM      4  C4  UNL     1     156.991 157.020 167.435  0.00  0.00    +0.000 A 
ATOM      5  N1  UNL     1     157.571 156.252 166.502  0.00  0.00    +0.000 N 
ATOM      6  C5  UNL     1     156.746 156.104 165.470  0.00  0.00    +0.000 A 
ATOM      7  N2  UNL     1     155.623 156.809 165.787  0.00  0.00    +0.000 NA
ATOM      8  N3  UNL     1     156.967 155.373 164.278  0.00  0.00    +0.000 N 
ATOM      9  C6  UNL     1     158.144 154.664 164.001  0.00  0.00    +0.000 C 
ATOM     10  O1  UNL     1     159.084 154.640 164.812  0.00  0.00    +0.000 OA
ATOM     11  C8  UNL     1     157.390 157.488 168.690  0.00  0.00    +0.000 A 
ATOM     12  C9  UNL     1     156.552 158.281 169.435  0.00  0.00    +0.000 A 
ATOM     13  H2  UNL     1     158.545 155.861 166.644  0.00  0.00    +0.000 HD
ATOM     14  H3  UNL     1     156.215 155.355 163.558  0.00  0.00    +0.000 HD
ENDROOT
BRANCH   9  15
ATOM     15  O2  UNL     1     158.323 153.948 162.801  0.00  0.00    +0.000 OA
ATOM     16  C7  UNL     1     157.302 153.067 162.373  0.00  0.00    +0.000 C 
ENDBRANCH   9  15
BRANCH   1  17
ATOM     17  S1  UNL     1     154.317 159.676 170.054  0.00  0.00    +0.000 S 
BRANCH  17  18
ATOM     18  C10 UNL     1     155.250 160.401 171.382  0.00  0.00    +0.000 A 
ATOM     19  C11 UNL     1     155.052 159.963 172.676  0.00  0.00    +0.000 A 
ATOM     20  C12 UNL     1     155.763 160.507 173.752  0.00  0.00    +0.000 A 
ATOM     21  C13 UNL     1     156.687 161.503 173.518  0.00  0.00    +0.000 A 
ATOM     22  C14 UNL     1     156.906 161.962 172.232  0.00  0.00    +0.000 A 
ATOM     23  C15 UNL     1     156.182 161.401 171.188  0.00  0.00    +0.000 A 
ENDBRANCH  17  18
ENDBRANCH   1  17
TORSDOF 3
ENDMDL
MODEL 4
REMARK VINA RESULT:      -5.6      2.267      3.121
REMARK  Name = ./3D_structures\o17_MMV003143_3D.pdb
REMARK  4 active torsions:
REMARK  status: ('A' for Active; 'I' for Inactive)
REMARK    1  A    between atoms: S1_1  and  C1_2
REMARK    2  A    between atoms: S1_1  and  C10_16
REMARK    3  A    between atoms: C6_10  and  O2_12
REMARK    4  A    between atoms: O2_12  and  C7_13
REMARK                            x       y       z     vdW  Elec       q    Type
REMARK                         _______ _______ _______ _____ _____    ______ ____
ROOT
ATOM      1  C1  UNL     1     153.135 158.665 168.705  0.00  0.00    +0.000 A 
ATOM      2  C2  UNL     1     152.931 159.852 168.036  0.00  0.00    +0.000 A 
ATOM      3  C3  UNL     1     151.811 160.655 168.289  0.00  0.00    +0.000 A 
ATOM      4  C4  UNL     1     150.874 160.286 169.217  0.00  0.00    +0.000 A 
ATOM      5  N1  UNL     1     149.921 161.228 169.255  0.00  0.00    +0.000 N 
ATOM      6  C5  UNL     1     150.210 162.191 168.385  0.00  0.00    +0.000 A 
ATOM      7  N2  UNL     1     151.382 161.821 167.795  0.00  0.00    +0.000 NA
ATOM      8  N3  UNL     1     149.468 163.365 168.109  0.00  0.00    +0.000 N 
ATOM      9  C6  UNL     1     148.265 163.699 168.746  0.00  0.00    +0.000 C 
ATOM     10  O1  UNL     1     147.771 162.958 169.612  0.00  0.00    +0.000 OA
ATOM     11  C8  UNL     1     151.076 159.084 169.900  0.00  0.00    +0.000 A 
ATOM     12  C9  UNL     1     152.181 158.312 169.636  0.00  0.00    +0.000 A 
ATOM     13  H2  UNL     1     149.093 161.142 169.911  0.00  0.00    +0.000 HD
ATOM     14  H3  UNL     1     149.832 164.027 167.393  0.00  0.00    +0.000 HD
ENDROOT
BRANCH   9  15
ATOM     15  O2  UNL     1     147.558 164.879 168.443  0.00  0.00    +0.000 OA
ATOM     16  C7  UNL     1     146.289 165.084 169.033  0.00  0.00    +0.000 C 
ENDBRANCH   9  15
BRANCH   1  17
ATOM     17  S1  UNL     1     154.508 157.588 168.459  0.00  0.00    +0.000 S 
BRANCH  17  18
ATOM     18  C10 UNL     1     155.910 158.008 169.468  0.00  0.00    +0.000 A 
ATOM     19  C11 UNL     1     155.718 158.402 170.776  0.00  0.00    +0.000 A 
ATOM     20  C12 UNL     1     156.791 158.743 171.606  0.00  0.00    +0.000 A 
ATOM     21  C13 UNL     1     158.076 158.684 171.108  0.00  0.00    +0.000 A 
ATOM     22  C14 UNL     1     158.299 158.293 169.801  0.00  0.00    +0.000 A 
ATOM     23  C15 UNL     1     157.210 157.962 169.005  0.00  0.00    +0.000 A 
ENDBRANCH  17  18
ENDBRANCH   1  17
TORSDOF 3
ENDMDL
MODEL 5
REMARK VINA RESULT:      -5.5     19.076     21.445
REMARK  Name = ./3D_structures\o17_MMV003143_3D.pdb
REMARK  4 active torsions:
REMARK  status: ('A' for Active; 'I' for Inactive)
REMARK    1  A    between atoms: S1_1  and  C1_2
REMARK    2  A    between atoms: S1_1  and  C10_16
REMARK    3  A    between atoms: C6_10  and  O2_12
REMARK    4  A    between atoms: O2_12  and  C7_13
REMARK                            x       y       z     vdW  Elec       q    Type
REMARK                         _______ _______ _______ _____ _____    ______ ____
ROOT
ATOM      1  C1  UNL     1     161.188 141.328 165.830  0.00  0.00    +0.000 A 
ATOM      2  C2  UNL     1     161.736 141.056 167.064  0.00  0.00    +0.000 A 
ATOM      3  C3  UNL     1     161.546 141.910 168.158  0.00  0.00    +0.000 A 
ATOM      4  C4  UNL     1     160.802 143.054 168.038  0.00  0.00    +0.000 A 
ATOM      5  N1  UNL     1     160.784 143.675 169.226  0.00  0.00    +0.000 N 
ATOM      6  C5  UNL     1     161.489 142.973 170.107  0.00  0.00    +0.000 A 
ATOM      7  N2  UNL     1     161.954 141.885 169.431  0.00  0.00    +0.000 NA
ATOM      8  N3  UNL     1     161.724 143.275 171.471  0.00  0.00    +0.000 N 
ATOM      9  C6  UNL     1     161.221 144.411 172.119  0.00  0.00    +0.000 C 
ATOM     10  O1  UNL     1     160.522 145.239 171.512  0.00  0.00    +0.000 OA
ATOM     11  C8  UNL     1     160.242 143.335 166.789  0.00  0.00    +0.000 A 
ATOM     12  C9  UNL     1     160.442 142.484 165.730  0.00  0.00    +0.000 A 
ATOM     13  H2  UNL     1     160.261 144.587 169.358  0.00  0.00    +0.000 HD
ATOM     14  H3  UNL     1     162.303 142.617 172.033  0.00  0.00    +0.000 HD
ENDROOT
BRANCH   9  15
ATOM     15  O2  UNL     1     161.478 144.673 173.480  0.00  0.00    +0.000 OA
ATOM     16  C7  UNL     1     162.210 145.834 173.823  0.00  0.00    +0.000 C 
ENDBRANCH   9  15
BRANCH   1  17
ATOM     17  S1  UNL     1     161.370 140.319 164.397  0.00  0.00    +0.000 S 
BRANCH  17  18
ATOM     18  C10 UNL     1     163.039 140.276 163.786  0.00  0.00    +0.000 A 
ATOM     19  C11 UNL     1     163.394 139.345 162.831  0.00  0.00    +0.000 A 
ATOM     20  C12 UNL     1     164.696 139.274 162.323  0.00  0.00    +0.000 A 
ATOM     21  C13 UNL     1     165.651 140.156 162.784  0.00  0.00    +0.000 A 
ATOM     22  C14 UNL     1     165.323 141.100 163.740  0.00  0.00    +0.000 A 
ATOM     23  C15 UNL     1     164.022 141.141 164.223  0.00  0.00    +0.000 A 
ENDBRANCH  17  18
ENDBRANCH   1  17
TORSDOF 3
ENDMDL
MODEL 6
REMARK VINA RESULT:      -5.5      4.335      5.583
REMARK  Name = ./3D_structures\o17_MMV003143_3D.pdb
REMARK  4 active torsions:
REMARK  status: ('A' for Active; 'I' for Inactive)
REMARK    1  A    between atoms: S1_1  and  C1_2
REMARK    2  A    between atoms: S1_1  and  C10_16
REMARK    3  A    between atoms: C6_10  and  O2_12
REMARK    4  A    between atoms: O2_12  and  C7_13
REMARK                            x       y       z     vdW  Elec       q    Type
REMARK                         _______ _______ _______ _____ _____    ______ ____
ROOT
ATOM      1  C1  UNL     1     151.353 163.678 167.707  0.00  0.00    +0.000 A 
ATOM      2  C2  UNL     1     150.029 163.309 167.616  0.00  0.00    +0.000 A 
ATOM      3  C3  UNL     1     149.046 164.201 167.165  0.00  0.00    +0.000 A 
ATOM      4  C4  UNL     1     149.371 165.479 166.795  0.00  0.00    +0.000 A 
ATOM      5  N1  UNL     1     148.251 166.106 166.409  0.00  0.00    +0.000 N 
ATOM      6  C5  UNL     1     147.216 165.278 166.516  0.00  0.00    +0.000 A 
ATOM      7  N2  UNL     1     147.725 164.104 166.986  0.00  0.00    +0.000 NA
ATOM      8  N3  UNL     1     145.858 165.540 166.213  0.00  0.00    +0.000 N 
ATOM      9  C6  UNL     1     145.386 166.769 165.731  0.00  0.00    +0.000 C 
ATOM     10  O1  UNL     1     146.159 167.722 165.540  0.00  0.00    +0.000 OA
ATOM     11  C8  UNL     1     150.712 165.859 166.884  0.00  0.00    +0.000 A 
ATOM     12  C9  UNL     1     151.659 164.969 167.329  0.00  0.00    +0.000 A 
ATOM     13  H2  UNL     1     148.274 167.113 166.080  0.00  0.00    +0.000 HD
ATOM     14  H3  UNL     1     145.162 164.779 166.352  0.00  0.00    +0.000 HD
ENDROOT
BRANCH   9  15
ATOM     15  O2  UNL     1     144.025 166.988 165.441  0.00  0.00    +0.000 OA
ATOM     16  C7  UNL     1     143.150 165.878 165.399  0.00  0.00    +0.000 C 
ENDBRANCH   9  15
BRANCH   1  17
ATOM     17  S1  UNL     1     152.659 162.633 168.261  0.00  0.00    +0.000 S 
BRANCH  17  18
ATOM     18  C10 UNL     1     152.100 161.338 169.343  0.00  0.00    +0.000 A 
ATOM     19  C11 UNL     1     151.801 160.094 168.825  0.00  0.00    +0.000 A 
ATOM     20  C12 UNL     1     151.357 159.047 169.640  0.00  0.00    +0.000 A 
ATOM     21  C13 UNL     1     151.215 159.258 170.995  0.00  0.00    +0.000 A 
ATOM     22  C14 UNL     1     151.507 160.493 171.542  0.00  0.00    +0.000 A 
ATOM     23  C15 UNL     1     151.945 161.511 170.704  0.00  0.00    +0.000 A 
ENDBRANCH  17  18
ENDBRANCH   1  17
TORSDOF 3
ENDMDL
MODEL 7
REMARK VINA RESULT:      -5.5      3.325      5.127
REMARK  Name = ./3D_structures\o17_MMV003143_3D.pdb
REMARK  4 active torsions:
REMARK  status: ('A' for Active; 'I' for Inactive)
REMARK    1  A    between atoms: S1_1  and  C1_2
REMARK    2  A    between atoms: S1_1  and  C10_16
REMARK    3  A    between atoms: C6_10  and  O2_12
REMARK    4  A    between atoms: O2_12  and  C7_13
REMARK                            x       y       z     vdW  Elec       q    Type
REMARK                         _______ _______ _______ _____ _____    ______ ____
ROOT
ATOM      1  C1  UNL     1     152.737 164.232 166.323  0.00  0.00    +0.000 A 
ATOM      2  C2  UNL     1     151.545 163.794 166.857  0.00  0.00    +0.000 A 
ATOM      3  C3  UNL     1     150.336 164.452 166.595  0.00  0.00    +0.000 A 
ATOM      4  C4  UNL     1     150.296 165.559 165.791  0.00  0.00    +0.000 A 
ATOM      5  N1  UNL     1     149.025 165.981 165.712  0.00  0.00    +0.000 N 
ATOM      6  C5  UNL     1     148.245 165.184 166.436  0.00  0.00    +0.000 A 
ATOM      7  N2  UNL     1     149.072 164.244 166.976  0.00  0.00    +0.000 NA
ATOM      8  N3  UNL     1     146.845 165.275 166.623  0.00  0.00    +0.000 N 
ATOM      9  C6  UNL     1     146.040 166.264 166.043  0.00  0.00    +0.000 C 
ATOM     10  O1  UNL     1     146.529 167.142 165.312  0.00  0.00    +0.000 OA
ATOM     11  C8  UNL     1     151.501 166.008 165.245  0.00  0.00    +0.000 A 
ATOM     12  C9  UNL     1     152.675 165.349 165.515  0.00  0.00    +0.000 A 
ATOM     13  H2  UNL     1     148.767 166.831 165.136  0.00  0.00    +0.000 HD
ATOM     14  H3  UNL     1     146.377 164.566 167.226  0.00  0.00    +0.000 HD
ENDROOT
BRANCH   9  15
ATOM     15  O2  UNL     1     144.648 166.319 166.255  0.00  0.00    +0.000 OA
ATOM     16  C7  UNL     1     143.828 165.335 165.653  0.00  0.00    +0.000 C 
ENDBRANCH   9  15
BRANCH   1  17
ATOM     17  S1  UNL     1     154.306 163.477 166.593  0.00  0.00    +0.000 S 
BRANCH  17  18
ATOM     18  C10 UNL     1     154.220 161.702 166.651  0.00  0.00    +0.000 A 
ATOM     19  C11 UNL     1     153.808 161.074 167.808  0.00  0.00    +0.000 A 
ATOM     20  C12 UNL     1     153.727 159.680 167.899  0.00  0.00    +0.000 A 
ATOM     21  C13 UNL     1     154.065 158.910 166.805  0.00  0.00    +0.000 A 
ATOM     22  C14 UNL     1     154.481 159.512 165.632  0.00  0.00    +0.000 A 
ATOM     23  C15 UNL     1     154.551 160.898 165.578  0.00  0.00    +0.000 A 
ENDBRANCH  17  18
ENDBRANCH   1  17
TORSDOF 3
ENDMDL
MODEL 8
REMARK VINA RESULT:      -5.4      2.137      2.788
REMARK  Name = ./3D_structures\o17_MMV003143_3D.pdb
REMARK  4 active torsions:
REMARK  status: ('A' for Active; 'I' for Inactive)
REMARK    1  A    between atoms: S1_1  and  C1_2
REMARK    2  A    between atoms: S1_1  and  C10_16
REMARK    3  A    between atoms: C6_10  and  O2_12
REMARK    4  A    between atoms: O2_12  and  C7_13
REMARK                            x       y       z     vdW  Elec       q    Type
REMARK                         _______ _______ _______ _____ _____    ______ ____
ROOT
ATOM      1  C1  UNL     1     151.714 159.518 169.132  0.00  0.00    +0.000 A 
ATOM      2  C2  UNL     1     150.462 160.006 169.434  0.00  0.00    +0.000 A 
ATOM      3  C3  UNL     1     149.944 161.144 168.801  0.00  0.00    +0.000 A 
ATOM      4  C4  UNL     1     150.670 161.815 167.854  0.00  0.00    +0.000 A 
ATOM      5  N1  UNL     1     149.942 162.853 167.418  0.00  0.00    +0.000 N 
ATOM      6  C5  UNL     1     148.773 162.876 168.051  0.00  0.00    +0.000 A 
ATOM      7  N2  UNL     1     148.791 161.812 168.903  0.00  0.00    +0.000 NA
ATOM      8  N3  UNL     1     147.715 163.803 167.891  0.00  0.00    +0.000 N 
ATOM      9  C6  UNL     1     147.749 164.882 166.997  0.00  0.00    +0.000 C 
ATOM     10  O1  UNL     1     148.740 165.088 166.278  0.00  0.00    +0.000 OA
ATOM     11  C8  UNL     1     151.940 161.324 167.542  0.00  0.00    +0.000 A 
ATOM     12  C9  UNL     1     152.429 160.207 168.175  0.00  0.00    +0.000 A 
ATOM     13  H2  UNL     1     150.317 163.511 166.676  0.00  0.00    +0.000 HD
ATOM     14  H3  UNL     1     146.856 163.682 168.467  0.00  0.00    +0.000 HD
ENDROOT
BRANCH   9  15
ATOM     15  O2  UNL     1     146.672 165.783 166.868  0.00  0.00    +0.000 OA
ATOM     16  C7  UNL     1     146.623 166.628 165.735  0.00  0.00    +0.000 C 
ENDBRANCH   9  15
BRANCH   1  17
ATOM     17  S1  UNL     1     152.452 158.098 169.871  0.00  0.00    +0.000 S 
BRANCH  17  18
ATOM     18  C10 UNL     1     154.203 157.998 169.584  0.00  0.00    +0.000 A 
ATOM     19  C11 UNL     1     154.681 157.267 168.515  0.00  0.00    +0.000 A 
ATOM     20  C12 UNL     1     156.050 157.160 168.252  0.00  0.00    +0.000 A 
ATOM     21  C13 UNL     1     156.950 157.801 169.078  0.00  0.00    +0.000 A 
ATOM     22  C14 UNL     1     156.501 158.540 170.156  0.00  0.00    +0.000 A 
ATOM     23  C15 UNL     1     155.134 158.624 170.388  0.00  0.00    +0.000 A 
ENDBRANCH  17  18
ENDBRANCH   1  17
TORSDOF 3
ENDMDL
MODEL 9
REMARK VINA RESULT:      -5.2      5.568      7.284
REMARK  Name = ./3D_structures\o17_MMV003143_3D.pdb
REMARK  4 active torsions:
REMARK  status: ('A' for Active; 'I' for Inactive)
REMARK    1  A    between atoms: S1_1  and  C1_2
REMARK    2  A    between atoms: S1_1  and  C10_16
REMARK    3  A    between atoms: C6_10  and  O2_12
REMARK    4  A    between atoms: O2_12  and  C7_13
REMARK                            x       y       z     vdW  Elec       q    Type
REMARK                         _______ _______ _______ _____ _____    ______ ____
ROOT
ATOM      1  C1  UNL     1     158.132 156.701 165.717  0.00  0.00    +0.000 A 
ATOM      2  C2  UNL     1     156.771 156.548 165.853  0.00  0.00    +0.000 A 
ATOM      3  C3  UNL     1     156.065 157.148 166.905  0.00  0.00    +0.000 A 
ATOM      4  C4  UNL     1     156.709 157.912 167.840  0.00  0.00    +0.000 A 
ATOM      5  N1  UNL     1     155.803 158.358 168.722  0.00  0.00    +0.000 N 
ATOM      6  C5  UNL     1     154.597 157.908 168.389  0.00  0.00    +0.000 A 
ATOM      7  N2  UNL     1     154.777 157.161 167.263  0.00  0.00    +0.000 NA
ATOM      8  N3  UNL     1     153.368 158.142 169.051  0.00  0.00    +0.000 N 
ATOM      9  C6  UNL     1     153.238 158.921 170.209  0.00  0.00    +0.000 C 
ATOM     10  O1  UNL     1     154.227 159.462 170.731  0.00  0.00    +0.000 OA
ATOM     11  C8  UNL     1     158.091 158.072 167.707  0.00  0.00    +0.000 A 
ATOM     12  C9  UNL     1     158.763 157.476 166.668  0.00  0.00    +0.000 A 
ATOM     13  H2  UNL     1     156.089 158.974 169.536  0.00  0.00    +0.000 HD
ATOM     14  H3  UNL     1     152.503 157.714 168.660  0.00  0.00    +0.000 HD
ENDROOT
BRANCH   9  15
ATOM     15  O2  UNL     1     151.994 159.129 170.837  0.00  0.00    +0.000 OA
ATOM     16  C7  UNL     1     150.869 158.405 170.379  0.00  0.00    +0.000 C 
ENDBRANCH   9  15
BRANCH   1  17
ATOM     17  S1  UNL     1     159.108 155.990 164.433  0.00  0.00    +0.000 S 
BRANCH  17  18
ATOM     18  C10 UNL     1     158.509 154.401 163.906  0.00  0.00    +0.000 A 
ATOM     19  C11 UNL     1     158.815 153.275 164.644  0.00  0.00    +0.000 A 
ATOM     20  C12 UNL     1     158.366 152.005 164.266  0.00  0.00    +0.000 A 
ATOM     21  C13 UNL     1     157.596 151.870 163.130  0.00  0.00    +0.000 A 
ATOM     22  C14 UNL     1     157.273 152.980 162.372  0.00  0.00    +0.000 A 
ATOM     23  C15 UNL     1     157.736 154.226 162.775  0.00  0.00    +0.000 A 
ENDBRANCH  17  18
ENDBRANCH   1  17
TORSDOF 3
ENDMDL
