MODEL 1
REMARK VINA RESULT:      -5.3      0.000      0.000
REMARK  Name = ./3D_structures\o18_MMV002337_3D.pdb
REMARK  6 active torsions:
REMARK  status: ('A' for Active; 'I' for Inactive)
REMARK    1  A    between atoms: C2_3  and  C7_9
REMARK    2  A    between atoms: C7_9  and  O1_10
REMARK    3  A    between atoms: C7_9  and  C8_11
REMARK    4  A    between atoms: C7_9  and  C11_17
REMARK    5  A    between atoms: C8_11  and  N1_12
REMARK    6  A    between atoms: C11_17  and  N4_18
REMARK                            x       y       z     vdW  Elec       q    Type
REMARK                         _______ _______ _______ _____ _____    ______ ____
ROOT
ATOM      1  C7  UNL     1     161.738 146.291 170.790  0.00  0.00    +0.000 C 
ENDROOT
BRANCH   1   4
ATOM      2  F1  UNL     1     159.258 145.199 170.266  0.00  0.00    +0.000 F 
ATOM      3  C1  UNL     1     160.301 144.679 169.610  0.00  0.00    +0.000 A 
ATOM      4  C2  UNL     1     161.611 145.184 169.861  0.00  0.00    +0.000 A 
ATOM      5  C3  UNL     1     162.574 144.550 169.163  0.00  0.00    +0.000 A 
ATOM      6  C4  UNL     1     162.344 143.489 168.262  0.00  0.00    +0.000 A 
ATOM      7  C5  UNL     1     161.084 143.035 168.047  0.00  0.00    +0.000 A 
ATOM      8  C6  UNL     1     160.071 143.650 168.737  0.00  0.00    +0.000 A 
ATOM      9  F2  UNL     1     160.849 142.007 167.175  0.00  0.00    +0.000 F 
ENDBRANCH   1   4
BRANCH   1  10
ATOM     10  O1  UNL     1     163.210 146.495 170.810  0.00  0.00    +0.000 OA
ATOM     11  H4  UNL     1     163.379 147.371 170.424  0.00  0.00    +0.000 HD
ENDBRANCH   1  10
BRANCH   1  12
ATOM     12  C8  UNL     1     161.442 145.965 172.232  0.00  0.00    +0.000 C 
BRANCH  12  13
ATOM     13  N1  UNL     1     162.560 145.306 172.865  0.00  0.00    +0.000 N 
ATOM     14  N2  UNL     1     163.560 146.008 173.474  0.00  0.00    +0.000 NA
ATOM     15  C9  UNL     1     164.504 145.180 173.924  0.00  0.00    +0.000 A 
ATOM     16  N3  UNL     1     164.132 143.943 173.614  0.00  0.00    +0.000 NA
ATOM     17  C10 UNL     1     162.940 144.040 172.965  0.00  0.00    +0.000 A 
ENDBRANCH  12  13
ENDBRANCH   1  12
BRANCH   1  18
ATOM     18  C11 UNL     1     161.261 147.610 170.420  0.00  0.00    +0.000 C 
BRANCH  18  19
ATOM     19  N4  UNL     1     161.912 148.490 169.499  0.00  0.00    +0.000 N 
ATOM     20  N5  UNL     1     162.937 149.263 169.860  0.00  0.00    +0.000 NA
ATOM     21  C12 UNL     1     163.364 149.968 168.816  0.00  0.00    +0.000 A 
ATOM     22  N6  UNL     1     162.624 149.668 167.745  0.00  0.00    +0.000 NA
ATOM     23  C13 UNL     1     161.725 148.744 168.196  0.00  0.00    +0.000 A 
ENDBRANCH  18  19
ENDBRANCH   1  18
TORSDOF 6
ENDMDL
MODEL 2
REMARK VINA RESULT:      -5.0     21.782     24.181
REMARK  Name = ./3D_structures\o18_MMV002337_3D.pdb
REMARK  6 active torsions:
REMARK  status: ('A' for Active; 'I' for Inactive)
REMARK    1  A    between atoms: C2_3  and  C7_9
REMARK    2  A    between atoms: C7_9  and  O1_10
REMARK    3  A    between atoms: C7_9  and  C8_11
REMARK    4  A    between atoms: C7_9  and  C11_17
REMARK    5  A    between atoms: C8_11  and  N1_12
REMARK    6  A    between atoms: C11_17  and  N4_18
REMARK                            x       y       z     vdW  Elec       q    Type
REMARK                         _______ _______ _______ _____ _____    ______ ____
ROOT
ATOM      1  C7  UNL     1     146.421 164.164 168.471  0.00  0.00    +0.000 C 
ENDROOT
BRANCH   1   4
ATOM      2  F1  UNL     1     148.712 163.892 166.956  0.00  0.00    +0.000 F 
ATOM      3  C1  UNL     1     148.835 164.504 168.140  0.00  0.00    +0.000 A 
ATOM      4  C2  UNL     1     147.690 164.647 168.979  0.00  0.00    +0.000 A 
ATOM      5  C3  UNL     1     147.959 165.247 170.155  0.00  0.00    +0.000 A 
ATOM      6  C4  UNL     1     149.235 165.703 170.549  0.00  0.00    +0.000 A 
ATOM      7  C5  UNL     1     150.301 165.551 169.726  0.00  0.00    +0.000 A 
ATOM      8  C6  UNL     1     150.075 164.945 168.516  0.00  0.00    +0.000 A 
ATOM      9  F2  UNL     1     151.542 165.990 170.097  0.00  0.00    +0.000 F 
ENDBRANCH   1   4
BRANCH   1  10
ATOM     10  O1  UNL     1     145.468 165.122 169.091  0.00  0.00    +0.000 OA
ATOM     11  H4  UNL     1     145.562 165.029 170.055  0.00  0.00    +0.000 HD
ENDBRANCH   1  10
BRANCH   1  12
ATOM     12  C8  UNL     1     145.957 162.844 169.035  0.00  0.00    +0.000 C 
BRANCH  12  13
ATOM     13  N1  UNL     1     146.475 161.733 168.273  0.00  0.00    +0.000 N 
ATOM     14  N2  UNL     1     147.726 161.229 168.492  0.00  0.00    +0.000 NA
ATOM     15  C9  UNL     1     147.994 160.254 167.623  0.00  0.00    +0.000 A 
ATOM     16  N3  UNL     1     146.932 160.114 166.837  0.00  0.00    +0.000 NA
ATOM     17  C10 UNL     1     146.012 161.028 167.249  0.00  0.00    +0.000 A 
ENDBRANCH  12  13
ENDBRANCH   1  12
BRANCH   1  18
ATOM     18  C11 UNL     1     146.101 164.296 167.062  0.00  0.00    +0.000 C 
BRANCH  18  19
ATOM     19  N4  UNL     1     145.485 165.440 166.464  0.00  0.00    +0.000 N 
ATOM     20  N5  UNL     1     146.100 166.622 166.393  0.00  0.00    +0.000 NA
ATOM     21  C12 UNL     1     145.318 167.504 165.779  0.00  0.00    +0.000 A 
ATOM     22  N6  UNL     1     144.169 166.916 165.433  0.00  0.00    +0.000 NA
ATOM     23  C13 UNL     1     144.298 165.629 165.872  0.00  0.00    +0.000 A 
ENDBRANCH  18  19
ENDBRANCH   1  18
TORSDOF 6
ENDMDL
MODEL 3
REMARK VINA RESULT:      -5.0     13.243     15.052
REMARK  Name = ./3D_structures\o18_MMV002337_3D.pdb
REMARK  6 active torsions:
REMARK  status: ('A' for Active; 'I' for Inactive)
REMARK    1  A    between atoms: C2_3  and  C7_9
REMARK    2  A    between atoms: C7_9  and  O1_10
REMARK    3  A    between atoms: C7_9  and  C8_11
REMARK    4  A    between atoms: C7_9  and  C11_17
REMARK    5  A    between atoms: C8_11  and  N1_12
REMARK    6  A    between atoms: C11_17  and  N4_18
REMARK                            x       y       z     vdW  Elec       q    Type
REMARK                         _______ _______ _______ _____ _____    ______ ____
ROOT
ATOM      1  C7  UNL     1     155.062 158.424 167.776  0.00  0.00    +0.000 C 
ENDROOT
BRANCH   1   4
ATOM      2  F1  UNL     1     153.485 160.650 167.353  0.00  0.00    +0.000 F 
ATOM      3  C1  UNL     1     153.013 159.721 168.192  0.00  0.00    +0.000 A 
ATOM      4  C2  UNL     1     153.797 158.563 168.471  0.00  0.00    +0.000 A 
ATOM      5  C3  UNL     1     153.223 157.727 169.359  0.00  0.00    +0.000 A 
ATOM      6  C4  UNL     1     151.969 157.945 169.969  0.00  0.00    +0.000 A 
ATOM      7  C5  UNL     1     151.250 159.057 169.679  0.00  0.00    +0.000 A 
ATOM      8  C6  UNL     1     151.796 159.938 168.780  0.00  0.00    +0.000 A 
ATOM      9  F2  UNL     1     150.033 159.278 170.263  0.00  0.00    +0.000 F 
ENDBRANCH   1   4
BRANCH   1  10
ATOM     10  O1  UNL     1     155.587 157.163 168.361  0.00  0.00    +0.000 OA
ATOM     11  H4  UNL     1     155.208 157.087 169.254  0.00  0.00    +0.000 HD
ENDBRANCH   1  10
BRANCH   1  12
ATOM     12  C8  UNL     1     156.127 159.420 168.160  0.00  0.00    +0.000 C 
BRANCH  12  13
ATOM     13  N1  UNL     1     156.880 158.971 169.307  0.00  0.00    +0.000 N 
ATOM     14  N2  UNL     1     156.384 159.063 170.577  0.00  0.00    +0.000 NA
ATOM     15  C9  UNL     1     157.288 158.645 171.463  0.00  0.00    +0.000 A 
ATOM     16  N3  UNL     1     158.373 158.281 170.787  0.00  0.00    +0.000 NA
ATOM     17  C10 UNL     1     158.105 158.489 169.469  0.00  0.00    +0.000 A 
ENDBRANCH  12  13
ENDBRANCH   1  12
BRANCH   1  18
ATOM     18  C11 UNL     1     155.084 158.125 166.356  0.00  0.00    +0.000 C 
BRANCH  18  19
ATOM     19  N4  UNL     1     156.151 157.459 165.674  0.00  0.00    +0.000 N 
ATOM     20  N5  UNL     1     156.242 156.129 165.626  0.00  0.00    +0.000 NA
ATOM     21  C12 UNL     1     157.312 155.773 164.921  0.00  0.00    +0.000 A 
ATOM     22  N6  UNL     1     157.945 156.867 164.489  0.00  0.00    +0.000 NA
ATOM     23  C13 UNL     1     157.202 157.906 164.972  0.00  0.00    +0.000 A 
ENDBRANCH  18  19
ENDBRANCH   1  18
TORSDOF 6
ENDMDL
MODEL 4
REMARK VINA RESULT:      -4.9     21.929     23.742
REMARK  Name = ./3D_structures\o18_MMV002337_3D.pdb
REMARK  6 active torsions:
REMARK  status: ('A' for Active; 'I' for Inactive)
REMARK    1  A    between atoms: C2_3  and  C7_9
REMARK    2  A    between atoms: C7_9  and  O1_10
REMARK    3  A    between atoms: C7_9  and  C8_11
REMARK    4  A    between atoms: C7_9  and  C11_17
REMARK    5  A    between atoms: C8_11  and  N1_12
REMARK    6  A    between atoms: C11_17  and  N4_18
REMARK                            x       y       z     vdW  Elec       q    Type
REMARK                         _______ _______ _______ _____ _____    ______ ____
ROOT
ATOM      1  C7  UNL     1     149.365 165.020 166.903  0.00  0.00    +0.000 C 
ENDROOT
BRANCH   1   4
ATOM      2  F1  UNL     1     150.688 162.656 166.374  0.00  0.00    +0.000 F 
ATOM      3  C1  UNL     1     151.129 163.753 165.747  0.00  0.00    +0.000 A 
ATOM      4  C2  UNL     1     150.502 165.008 166.004  0.00  0.00    +0.000 A 
ATOM      5  C3  UNL     1     151.066 166.036 165.338  0.00  0.00    +0.000 A 
ATOM      6  C4  UNL     1     152.167 165.916 164.463  0.00  0.00    +0.000 A 
ATOM      7  C5  UNL     1     152.737 164.706 164.241  0.00  0.00    +0.000 A 
ATOM      8  C6  UNL     1     152.197 163.630 164.899  0.00  0.00    +0.000 A 
ATOM      9  F2  UNL     1     153.804 164.577 163.395  0.00  0.00    +0.000 F 
ENDBRANCH   1   4
BRANCH   1  10
ATOM     10  O1  UNL     1     149.190 166.477 167.143  0.00  0.00    +0.000 OA
ATOM     11  H4  UNL     1     148.515 166.786 166.515  0.00  0.00    +0.000 HD
ENDBRANCH   1  10
BRANCH   1  12
ATOM     12  C8  UNL     1     149.632 164.499 168.294  0.00  0.00    +0.000 C 
BRANCH  12  13
ATOM     13  N1  UNL     1     148.402 164.203 168.991  0.00  0.00    +0.000 N 
ATOM     14  N2  UNL     1     147.740 165.151 169.719  0.00  0.00    +0.000 NA
ATOM     15  C9  UNL     1     146.673 164.619 170.317  0.00  0.00    +0.000 A 
ATOM     16  N3  UNL     1     146.630 163.332 169.988  0.00  0.00    +0.000 NA
ATOM     17  C10 UNL     1     147.697 163.096 169.177  0.00  0.00    +0.000 A 
ENDBRANCH  12  13
ENDBRANCH   1  12
BRANCH   1  18
ATOM     18  C11 UNL     1     148.051 164.638 166.422  0.00  0.00    +0.000 C 
BRANCH  18  19
ATOM     19  N4  UNL     1     146.937 165.525 166.288  0.00  0.00    +0.000 N 
ATOM     20  N5  UNL     1     146.976 166.601 165.501  0.00  0.00    +0.000 NA
ATOM     21  C12 UNL     1     145.811 167.239 165.545  0.00  0.00    +0.000 A 
ATOM     22  N6  UNL     1     144.979 166.590 166.365  0.00  0.00    +0.000 NA
ATOM     23  C13 UNL     1     145.705 165.524 166.816  0.00  0.00    +0.000 A 
ENDBRANCH  18  19
ENDBRANCH   1  18
TORSDOF 6
ENDMDL
MODEL 5
REMARK VINA RESULT:      -4.9     20.839     23.066
REMARK  Name = ./3D_structures\o18_MMV002337_3D.pdb
REMARK  6 active torsions:
REMARK  status: ('A' for Active; 'I' for Inactive)
REMARK    1  A    between atoms: C2_3  and  C7_9
REMARK    2  A    between atoms: C7_9  and  O1_10
REMARK    3  A    between atoms: C7_9  and  C8_11
REMARK    4  A    between atoms: C7_9  and  C11_17
REMARK    5  A    between atoms: C8_11  and  N1_12
REMARK    6  A    between atoms: C11_17  and  N4_18
REMARK                            x       y       z     vdW  Elec       q    Type
REMARK                         _______ _______ _______ _____ _____    ______ ____
ROOT
ATOM      1  C7  UNL     1     149.348 164.705 167.250  0.00  0.00    +0.000 C 
ENDROOT
BRANCH   1   4
ATOM      2  F1  UNL     1     150.312 166.124 165.089  0.00  0.00    +0.000 F 
ATOM      3  C1  UNL     1     150.881 164.940 165.340  0.00  0.00    +0.000 A 
ATOM      4  C2  UNL     1     150.404 164.149 166.428  0.00  0.00    +0.000 A 
ATOM      5  C3  UNL     1     151.037 162.965 166.548  0.00  0.00    +0.000 A 
ATOM      6  C4  UNL     1     152.075 162.521 165.701  0.00  0.00    +0.000 A 
ATOM      7  C5  UNL     1     152.503 163.300 164.678  0.00  0.00    +0.000 A 
ATOM      8  C6  UNL     1     151.888 164.515 164.515  0.00  0.00    +0.000 A 
ATOM      9  F2  UNL     1     153.509 162.881 163.850  0.00  0.00    +0.000 F 
ENDBRANCH   1   4
BRANCH   1  10
ATOM     10  O1  UNL     1     149.025 163.556 168.137  0.00  0.00    +0.000 OA
ATOM     11  H4  UNL     1     149.823 163.002 168.183  0.00  0.00    +0.000 HD
ENDBRANCH   1  10
BRANCH   1  12
ATOM     12  C8  UNL     1     148.035 164.944 166.548  0.00  0.00    +0.000 C 
BRANCH  12  13
ATOM     13  N1  UNL     1     146.917 164.534 167.365  0.00  0.00    +0.000 N 
ATOM     14  N2  UNL     1     146.375 163.284 167.270  0.00  0.00    +0.000 NA
ATOM     15  C9  UNL     1     145.319 163.171 168.077  0.00  0.00    +0.000 A 
ATOM     16  N3  UNL     1     145.164 164.334 168.699  0.00  0.00    +0.000 NA
ATOM     17  C10 UNL     1     146.151 165.157 168.250  0.00  0.00    +0.000 A 
ENDBRANCH  12  13
ENDBRANCH   1  12
BRANCH   1  18
ATOM     18  C11 UNL     1     149.647 165.748 168.213  0.00  0.00    +0.000 C 
BRANCH  18  19
ATOM     19  N4  UNL     1     149.934 165.530 169.598  0.00  0.00    +0.000 N 
ATOM     20  N5  UNL     1     150.967 164.787 170.000  0.00  0.00    +0.000 NA
ATOM     21  C12 UNL     1     151.015 164.760 171.329  0.00  0.00    +0.000 A 
ATOM     22  N6  UNL     1     150.011 165.488 171.826  0.00  0.00    +0.000 NA
ATOM     23  C13 UNL     1     149.351 165.958 170.727  0.00  0.00    +0.000 A 
ENDBRANCH  18  19
ENDBRANCH   1  18
TORSDOF 6
ENDMDL
MODEL 6
REMARK VINA RESULT:      -4.8     12.823     15.142
REMARK  Name = ./3D_structures\o18_MMV002337_3D.pdb
REMARK  6 active torsions:
REMARK  status: ('A' for Active; 'I' for Inactive)
REMARK    1  A    between atoms: C2_3  and  C7_9
REMARK    2  A    between atoms: C7_9  and  O1_10
REMARK    3  A    between atoms: C7_9  and  C8_11
REMARK    4  A    between atoms: C7_9  and  C11_17
REMARK    5  A    between atoms: C8_11  and  N1_12
REMARK    6  A    between atoms: C11_17  and  N4_18
REMARK                            x       y       z     vdW  Elec       q    Type
REMARK                         _______ _______ _______ _____ _____    ______ ____
ROOT
ATOM      1  C7  UNL     1     155.897 157.855 168.492  0.00  0.00    +0.000 C 
ENDROOT
BRANCH   1   4
ATOM      2  F1  UNL     1     155.968 156.812 171.046  0.00  0.00    +0.000 F 
ATOM      3  C1  UNL     1     156.251 158.113 170.913  0.00  0.00    +0.000 A 
ATOM      4  C2  UNL     1     156.202 158.713 169.620  0.00  0.00    +0.000 A 
ATOM      5  C3  UNL     1     156.471 160.033 169.630  0.00  0.00    +0.000 A 
ATOM      6  C4  UNL     1     156.779 160.779 170.789  0.00  0.00    +0.000 A 
ATOM      7  C5  UNL     1     156.817 160.175 172.002  0.00  0.00    +0.000 A 
ATOM      8  C6  UNL     1     156.549 158.830 172.040  0.00  0.00    +0.000 A 
ATOM      9  F2  UNL     1     157.114 160.887 173.131  0.00  0.00    +0.000 F 
ENDBRANCH   1   4
BRANCH   1  10
ATOM     10  O1  UNL     1     155.979 158.813 167.358  0.00  0.00    +0.000 OA
ATOM     11  H4  UNL     1     155.890 158.292 166.541  0.00  0.00    +0.000 HD
ENDBRANCH   1  10
BRANCH   1  12
ATOM     12  C8  UNL     1     154.468 157.380 168.404  0.00  0.00    +0.000 C 
BRANCH  12  13
ATOM     13  N1  UNL     1     153.538 158.454 168.663  0.00  0.00    +0.000 N 
ATOM     14  N2  UNL     1     153.278 159.421 167.735  0.00  0.00    +0.000 NA
ATOM     15  C9  UNL     1     152.439 160.331 168.233  0.00  0.00    +0.000 A 
ATOM     16  N3  UNL     1     152.149 159.970 169.478  0.00  0.00    +0.000 NA
ATOM     17  C10 UNL     1     152.832 158.819 169.724  0.00  0.00    +0.000 A 
ENDBRANCH  12  13
ENDBRANCH   1  12
BRANCH   1  18
ATOM     18  C11 UNL     1     156.837 156.829 168.082  0.00  0.00    +0.000 C 
BRANCH  18  19
ATOM     19  N4  UNL     1     157.288 156.617 166.740  0.00  0.00    +0.000 N 
ATOM     20  N5  UNL     1     156.472 156.185 165.778  0.00  0.00    +0.000 NA
ATOM     21  C12 UNL     1     157.136 156.090 164.629  0.00  0.00    +0.000 A 
ATOM     22  N6  UNL     1     158.406 156.460 164.817  0.00  0.00    +0.000 NA
ATOM     23  C13 UNL     1     158.476 156.784 166.142  0.00  0.00    +0.000 A 
ENDBRANCH  18  19
ENDBRANCH   1  18
TORSDOF 6
ENDMDL
MODEL 7
REMARK VINA RESULT:      -4.8     21.901     23.620
REMARK  Name = ./3D_structures\o18_MMV002337_3D.pdb
REMARK  6 active torsions:
REMARK  status: ('A' for Active; 'I' for Inactive)
REMARK    1  A    between atoms: C2_3  and  C7_9
REMARK    2  A    between atoms: C7_9  and  O1_10
REMARK    3  A    between atoms: C7_9  and  C8_11
REMARK    4  A    between atoms: C7_9  and  C11_17
REMARK    5  A    between atoms: C8_11  and  N1_12
REMARK    6  A    between atoms: C11_17  and  N4_18
REMARK                            x       y       z     vdW  Elec       q    Type
REMARK                         _______ _______ _______ _____ _____    ______ ____
ROOT
ATOM      1  C7  UNL     1     150.010 165.464 167.734  0.00  0.00    +0.000 C 
ENDROOT
BRANCH   1   4
ATOM      2  F1  UNL     1     150.819 162.838 167.476  0.00  0.00    +0.000 F 
ATOM      3  C1  UNL     1     151.106 163.664 166.464  0.00  0.00    +0.000 A 
ATOM      4  C2  UNL     1     150.738 165.040 166.555  0.00  0.00    +0.000 A 
ATOM      5  C3  UNL     1     151.118 165.768 165.486  0.00  0.00    +0.000 A 
ATOM      6  C4  UNL     1     151.811 165.252 164.370  0.00  0.00    +0.000 A 
ATOM      7  C5  UNL     1     152.144 163.939 164.318  0.00  0.00    +0.000 A 
ATOM      8  C6  UNL     1     151.777 163.158 165.384  0.00  0.00    +0.000 A 
ATOM      9  F2  UNL     1     152.814 163.427 163.241  0.00  0.00    +0.000 F 
ENDBRANCH   1   4
BRANCH   1  10
ATOM     10  O1  UNL     1     149.920 166.932 167.515  0.00  0.00    +0.000 OA
ATOM     11  H4  UNL     1     150.784 167.307 167.759  0.00  0.00    +0.000 HD
ENDBRANCH   1  10
BRANCH   1  12
ATOM     12  C8  UNL     1     150.774 165.383 169.033  0.00  0.00    +0.000 C 
BRANCH  12  13
ATOM     13  N1  UNL     1     150.487 166.513 169.885  0.00  0.00    +0.000 N 
ATOM     14  N2  UNL     1     151.225 167.661 169.833  0.00  0.00    +0.000 NA
ATOM     15  C9  UNL     1     150.806 168.527 170.758  0.00  0.00    +0.000 A 
ATOM     16  N3  UNL     1     149.802 167.956 171.415  0.00  0.00    +0.000 NA
ATOM     17  C10 UNL     1     149.622 166.723 170.867  0.00  0.00    +0.000 A 
ENDBRANCH  12  13
ENDBRANCH   1  12
BRANCH   1  18
ATOM     18  C11 UNL     1     148.616 165.102 167.900  0.00  0.00    +0.000 C 
BRANCH  18  19
ATOM     19  N4  UNL     1     147.588 165.328 166.930  0.00  0.00    +0.000 N 
ATOM     20  N5  UNL     1     147.363 166.532 166.402  0.00  0.00    +0.000 NA
ATOM     21  C12 UNL     1     146.369 166.462 165.521  0.00  0.00    +0.000 A 
ATOM     22  N6  UNL     1     145.923 165.204 165.452  0.00  0.00    +0.000 NA
ATOM     23  C13 UNL     1     146.699 164.516 166.340  0.00  0.00    +0.000 A 
ENDBRANCH  18  19
ENDBRANCH   1  18
TORSDOF 6
ENDMDL
MODEL 8
REMARK VINA RESULT:      -4.8     22.521     24.379
REMARK  Name = ./3D_structures\o18_MMV002337_3D.pdb
REMARK  6 active torsions:
REMARK  status: ('A' for Active; 'I' for Inactive)
REMARK    1  A    between atoms: C2_3  and  C7_9
REMARK    2  A    between atoms: C7_9  and  O1_10
REMARK    3  A    between atoms: C7_9  and  C8_11
REMARK    4  A    between atoms: C7_9  and  C11_17
REMARK    5  A    between atoms: C8_11  and  N1_12
REMARK    6  A    between atoms: C11_17  and  N4_18
REMARK                            x       y       z     vdW  Elec       q    Type
REMARK                         _______ _______ _______ _____ _____    ______ ____
ROOT
ATOM      1  C7  UNL     1     145.689 162.774 167.365  0.00  0.00    +0.000 C 
ENDROOT
BRANCH   1   4
ATOM      2  F1  UNL     1     148.375 163.286 166.996  0.00  0.00    +0.000 F 
ATOM      3  C1  UNL     1     147.797 163.822 168.077  0.00  0.00    +0.000 A 
ATOM      4  C2  UNL     1     146.418 163.568 168.335  0.00  0.00    +0.000 A 
ATOM      5  C3  UNL     1     145.970 164.135 169.472  0.00  0.00    +0.000 A 
ATOM      6  C4  UNL     1     146.762 164.913 170.345  0.00  0.00    +0.000 A 
ATOM      7  C5  UNL     1     148.070 165.135 170.067  0.00  0.00    +0.000 A 
ATOM      8  C6  UNL     1     148.570 164.576 168.919  0.00  0.00    +0.000 A 
ATOM      9  F2  UNL     1     148.846 165.888 170.905  0.00  0.00    +0.000 F 
ENDBRANCH   1   4
BRANCH   1  10
ATOM     10  O1  UNL     1     144.374 162.614 168.040  0.00  0.00    +0.000 OA
ATOM     11  H4  UNL     1     144.420 161.791 168.557  0.00  0.00    +0.000 HD
ENDBRANCH   1  10
BRANCH   1  12
ATOM     12  C8  UNL     1     146.147 161.344 167.220  0.00  0.00    +0.000 C 
BRANCH  12  13
ATOM     13  N1  UNL     1     145.273 160.435 167.923  0.00  0.00    +0.000 N 
ATOM     14  N2  UNL     1     145.364 160.247 169.273  0.00  0.00    +0.000 NA
ATOM     15  C9  UNL     1     144.496 159.316 169.673  0.00  0.00    +0.000 A 
ATOM     16  N3  UNL     1     143.838 158.893 168.599  0.00  0.00    +0.000 NA
ATOM     17  C10 UNL     1     144.328 159.589 167.537  0.00  0.00    +0.000 A 
ENDBRANCH  12  13
ENDBRANCH   1  12
BRANCH   1  18
ATOM     18  C11 UNL     1     145.301 163.352 166.093  0.00  0.00    +0.000 C 
BRANCH  18  19
ATOM     19  N4  UNL     1     144.930 164.719 165.892  0.00  0.00    +0.000 N 
ATOM     20  N5  UNL     1     145.837 165.690 165.765  0.00  0.00    +0.000 NA
ATOM     21  C12 UNL     1     145.229 166.857 165.573  0.00  0.00    +0.000 A 
ATOM     22  N6  UNL     1     143.905 166.673 165.568  0.00  0.00    +0.000 NA
ATOM     23  C13 UNL     1     143.745 165.332 165.769  0.00  0.00    +0.000 A 
ENDBRANCH  18  19
ENDBRANCH   1  18
TORSDOF 6
ENDMDL
MODEL 9
REMARK VINA RESULT:      -4.8     12.606     14.474
REMARK  Name = ./3D_structures\o18_MMV002337_3D.pdb
REMARK  6 active torsions:
REMARK  status: ('A' for Active; 'I' for Inactive)
REMARK    1  A    between atoms: C2_3  and  C7_9
REMARK    2  A    between atoms: C7_9  and  O1_10
REMARK    3  A    between atoms: C7_9  and  C8_11
REMARK    4  A    between atoms: C7_9  and  C11_17
REMARK    5  A    between atoms: C8_11  and  N1_12
REMARK    6  A    between atoms: C11_17  and  N4_18
REMARK                            x       y       z     vdW  Elec       q    Type
REMARK                         _______ _______ _______ _____ _____    ______ ____
ROOT
ATOM      1  C7  UNL     1     157.046 157.470 166.705  0.00  0.00    +0.000 C 
ENDROOT
BRANCH   1   4
ATOM      2  F1  UNL     1     158.830 158.919 168.234  0.00  0.00    +0.000 F 
ATOM      3  C1  UNL     1     157.797 158.358 168.873  0.00  0.00    +0.000 A 
ATOM      4  C2  UNL     1     156.859 157.573 168.139  0.00  0.00    +0.000 A 
ATOM      5  C3  UNL     1     155.890 157.037 168.907  0.00  0.00    +0.000 A 
ATOM      6  C4  UNL     1     155.783 157.216 170.304  0.00  0.00    +0.000 A 
ATOM      7  C5  UNL     1     156.693 157.969 170.969  0.00  0.00    +0.000 A 
ATOM      8  C6  UNL     1     157.699 158.536 170.227  0.00  0.00    +0.000 A 
ATOM      9  F2  UNL     1     156.600 158.150 172.321  0.00  0.00    +0.000 F 
ENDBRANCH   1   4
BRANCH   1  10
ATOM     10  O1  UNL     1     155.983 156.498 166.336  0.00  0.00    +0.000 OA
ATOM     11  H4  UNL     1     156.394 155.616 166.338  0.00  0.00    +0.000 HD
ENDBRANCH   1  10
BRANCH   1  12
ATOM     12  C8  UNL     1     158.298 156.753 166.264  0.00  0.00    +0.000 C 
BRANCH  12  13
ATOM     13  N1  UNL     1     158.177 156.263 164.911  0.00  0.00    +0.000 N 
ATOM     14  N2  UNL     1     157.660 155.029 164.636  0.00  0.00    +0.000 NA
ATOM     15  C9  UNL     1     157.713 154.783 163.326  0.00  0.00    +0.000 A 
ATOM     16  N3  UNL     1     158.260 155.843 162.741  0.00  0.00    +0.000 NA
ATOM     17  C10 UNL     1     158.539 156.739 163.728  0.00  0.00    +0.000 A 
ENDBRANCH  12  13
ENDBRANCH   1  12
BRANCH   1  18
ATOM     18  C11 UNL     1     156.732 158.595 165.846  0.00  0.00    +0.000 C 
BRANCH  18  19
ATOM     19  N4  UNL     1     155.604 159.461 166.006  0.00  0.00    +0.000 N 
ATOM     20  N5  UNL     1     154.350 159.012 165.938  0.00  0.00    +0.000 NA
ATOM     21  C12 UNL     1     153.498 160.014 166.136  0.00  0.00    +0.000 A 
ATOM     22  N6  UNL     1     154.181 161.145 166.341  0.00  0.00    +0.000 NA
ATOM     23  C13 UNL     1     155.492 160.773 166.255  0.00  0.00    +0.000 A 
ENDBRANCH  18  19
ENDBRANCH   1  18
TORSDOF 6
ENDMDL
