MODEL 1
REMARK VINA RESULT:      -6.2      0.000      0.000
REMARK  Name = ./3D_structures\o1_MMV1634492_3D.pdb
REMARK  1 active torsions:
REMARK  status: ('A' for Active; 'I' for Inactive)
REMARK    1  A    between atoms: C11_13  and  N1_14
REMARK                            x       y       z     vdW  Elec       q    Type
REMARK                         _______ _______ _______ _____ _____    ______ ____
ROOT
ATOM      1 CL1  UNL     1     151.406 162.050 169.854  0.00  0.00    +0.000 Cl
ATOM      2  C1  UNL     1     152.146 161.237 168.488  0.00  0.00    +0.000 A 
ATOM      3  C2  UNL     1     152.948 160.109 168.720  0.00  0.00    +0.000 A 
ATOM      4  C3  UNL     1     153.559 159.423 167.696  0.00  0.00    +0.000 A 
ATOM      5  C4  UNL     1     153.331 159.921 166.404  0.00  0.00    +0.000 A 
ATOM      6  C5  UNL     1     152.543 161.030 166.186  0.00  0.00    +0.000 A 
ATOM      7  C6  UNL     1     151.936 161.708 167.220  0.00  0.00    +0.000 A 
ATOM      8 CL2  UNL     1     152.274 161.632 164.555  0.00  0.00    +0.000 Cl
ATOM      9  C7  UNL     1     154.432 158.246 167.614  0.00  0.00    +0.000 C 
ATOM     10  C8  UNL     1     154.577 157.422 168.835  0.00  0.00    +0.000 C 
ATOM     11  C9  UNL     1     154.961 158.195 170.021  0.00  0.00    +0.000 A 
ATOM     12  C10 UNL     1     154.283 159.244 170.609  0.00  0.00    +0.000 A 
ATOM     13  C11 UNL     1     153.011 159.810 170.163  0.00  0.00    +0.000 C 
ATOM     14  C15 UNL     1     154.757 159.891 171.729  0.00  0.00    +0.000 A 
ATOM     15  C16 UNL     1     155.936 159.485 172.277  0.00  0.00    +0.000 A 
ATOM     16  C17 UNL     1     156.618 158.432 171.688  0.00  0.00    +0.000 A 
ATOM     17  C18 UNL     1     156.149 157.774 170.562  0.00  0.00    +0.000 A 
ENDROOT
BRANCH  13  18
ATOM     18  N1  UNL     1     151.914 158.920 170.570  0.00  0.00    +0.000 N 
ATOM     19  C12 UNL     1     151.220 159.034 171.713  0.00  0.00    +0.000 A 
ATOM     20  N2  UNL     1     150.299 158.058 171.752  0.00  0.00    +0.000 NA
ATOM     21  C13 UNL     1     150.396 157.320 170.650  0.00  0.00    +0.000 A 
ATOM     22  C14 UNL     1     151.422 157.869 169.900  0.00  0.00    +0.000 A 
ENDBRANCH  13  18
TORSDOF 1
ENDMDL
MODEL 2
REMARK VINA RESULT:      -6.1      3.868      6.334
REMARK  Name = ./3D_structures\o1_MMV1634492_3D.pdb
REMARK  1 active torsions:
REMARK  status: ('A' for Active; 'I' for Inactive)
REMARK    1  A    between atoms: C11_13  and  N1_14
REMARK                            x       y       z     vdW  Elec       q    Type
REMARK                         _______ _______ _______ _____ _____    ______ ____
ROOT
ATOM      1 CL1  UNL     1     153.506 158.805 168.244  0.00  0.00    +0.000 Cl
ATOM      2  C1  UNL     1     154.972 158.813 169.205  0.00  0.00    +0.000 A 
ATOM      3  C2  UNL     1     156.208 158.633 168.565  0.00  0.00    +0.000 A 
ATOM      4  C3  UNL     1     157.397 158.629 169.258  0.00  0.00    +0.000 A 
ATOM      5  C4  UNL     1     157.298 158.815 170.645  0.00  0.00    +0.000 A 
ATOM      6  C5  UNL     1     156.080 158.990 171.265  0.00  0.00    +0.000 A 
ATOM      7  C6  UNL     1     154.896 158.993 170.561  0.00  0.00    +0.000 A 
ATOM      8 CL2  UNL     1     155.985 159.222 173.007  0.00  0.00    +0.000 Cl
ATOM      9  C7  UNL     1     158.809 158.469 168.890  0.00  0.00    +0.000 C 
ATOM     10  C8  UNL     1     159.146 158.525 167.450  0.00  0.00    +0.000 C 
ATOM     11  C9  UNL     1     158.352 157.607 166.626  0.00  0.00    +0.000 A 
ATOM     12  C10 UNL     1     156.980 157.571 166.474  0.00  0.00    +0.000 A 
ATOM     13  C11 UNL     1     156.015 158.464 167.112  0.00  0.00    +0.000 C 
ATOM     14  C15 UNL     1     156.354 156.648 165.665  0.00  0.00    +0.000 A 
ATOM     15  C16 UNL     1     157.111 155.739 164.991  0.00  0.00    +0.000 A 
ATOM     16  C17 UNL     1     158.488 155.773 165.142  0.00  0.00    +0.000 A 
ATOM     17  C18 UNL     1     159.128 156.697 165.954  0.00  0.00    +0.000 A 
ENDROOT
BRANCH  13  18
ATOM     18  N1  UNL     1     156.022 159.761 166.421  0.00  0.00    +0.000 N 
ATOM     19  C12 UNL     1     155.444 159.998 165.233  0.00  0.00    +0.000 A 
ATOM     20  N2  UNL     1     155.648 161.285 164.909  0.00  0.00    +0.000 NA
ATOM     21  C13 UNL     1     156.349 161.874 165.872  0.00  0.00    +0.000 A 
ATOM     22  C14 UNL     1     156.586 160.905 166.832  0.00  0.00    +0.000 A 
ENDBRANCH  13  18
TORSDOF 1
ENDMDL
MODEL 3
REMARK VINA RESULT:      -6.1      4.848      6.668
REMARK  Name = ./3D_structures\o1_MMV1634492_3D.pdb
REMARK  1 active torsions:
REMARK  status: ('A' for Active; 'I' for Inactive)
REMARK    1  A    between atoms: C11_13  and  N1_14
REMARK                            x       y       z     vdW  Elec       q    Type
REMARK                         _______ _______ _______ _____ _____    ______ ____
ROOT
ATOM      1 CL1  UNL     1     160.734 157.809 166.537  0.00  0.00    +0.000 Cl
ATOM      2  C1  UNL     1     159.174 157.150 166.085  0.00  0.00    +0.000 A 
ATOM      3  C2  UNL     1     158.027 157.584 166.767  0.00  0.00    +0.000 A 
ATOM      4  C3  UNL     1     156.772 157.109 166.464  0.00  0.00    +0.000 A 
ATOM      5  C4  UNL     1     156.708 156.162 165.429  0.00  0.00    +0.000 A 
ATOM      6  C5  UNL     1     157.841 155.741 164.767  0.00  0.00    +0.000 A 
ATOM      7  C6  UNL     1     159.092 156.224 165.079  0.00  0.00    +0.000 A 
ATOM      8 CL2  UNL     1     157.732 154.552 163.473  0.00  0.00    +0.000 Cl
ATOM      9  C7  UNL     1     155.419 157.356 166.976  0.00  0.00    +0.000 C 
ATOM     10  C8  UNL     1     155.238 158.511 167.885  0.00  0.00    +0.000 C 
ATOM     11  C9  UNL     1     156.166 158.513 169.021  0.00  0.00    +0.000 A 
ATOM     12  C10 UNL     1     157.546 158.540 168.992  0.00  0.00    +0.000 A 
ATOM     13  C11 UNL     1     158.386 158.578 167.796  0.00  0.00    +0.000 C 
ATOM     14  C15 UNL     1     158.306 158.537 170.141  0.00  0.00    +0.000 A 
ATOM     15  C16 UNL     1     157.678 158.506 171.349  0.00  0.00    +0.000 A 
ATOM     16  C17 UNL     1     156.293 158.479 171.380  0.00  0.00    +0.000 A 
ATOM     17  C18 UNL     1     155.519 158.482 170.230  0.00  0.00    +0.000 A 
ENDROOT
BRANCH  13  18
ATOM     18  N1  UNL     1     158.383 159.940 167.243  0.00  0.00    +0.000 N 
ATOM     19  C12 UNL     1     159.111 160.962 167.721  0.00  0.00    +0.000 A 
ATOM     20  N2  UNL     1     158.861 162.049 166.976  0.00  0.00    +0.000 NA
ATOM     21  C13 UNL     1     157.982 161.738 166.028  0.00  0.00    +0.000 A 
ATOM     22  C14 UNL     1     157.680 160.398 166.198  0.00  0.00    +0.000 A 
ENDBRANCH  13  18
TORSDOF 1
ENDMDL
MODEL 4
REMARK VINA RESULT:      -6.0      3.900      5.235
REMARK  Name = ./3D_structures\o1_MMV1634492_3D.pdb
REMARK  1 active torsions:
REMARK  status: ('A' for Active; 'I' for Inactive)
REMARK    1  A    between atoms: C11_13  and  N1_14
REMARK                            x       y       z     vdW  Elec       q    Type
REMARK                         _______ _______ _______ _____ _____    ______ ____
ROOT
ATOM      1 CL1  UNL     1     156.858 161.940 168.238  0.00  0.00    +0.000 Cl
ATOM      2  C1  UNL     1     155.815 160.866 167.326  0.00  0.00    +0.000 A 
ATOM      3  C2  UNL     1     156.253 159.562 167.049  0.00  0.00    +0.000 A 
ATOM      4  C3  UNL     1     155.486 158.668 166.339  0.00  0.00    +0.000 A 
ATOM      5  C4  UNL     1     154.237 159.140 165.907  0.00  0.00    +0.000 A 
ATOM      6  C5  UNL     1     153.815 160.422 166.183  0.00  0.00    +0.000 A 
ATOM      7  C6  UNL     1     154.592 161.309 166.895  0.00  0.00    +0.000 A 
ATOM      8 CL2  UNL     1     152.243 160.988 165.630  0.00  0.00    +0.000 Cl
ATOM      9  C7  UNL     1     155.657 157.278 165.898  0.00  0.00    +0.000 C 
ATOM     10  C8  UNL     1     156.789 156.518 166.475  0.00  0.00    +0.000 C 
ATOM     11  C9  UNL     1     158.080 157.201 166.346  0.00  0.00    +0.000 A 
ATOM     12  C10 UNL     1     158.442 158.437 166.843  0.00  0.00    +0.000 A 
ATOM     13  C11 UNL     1     157.594 159.338 167.622  0.00  0.00    +0.000 C 
ATOM     14  C15 UNL     1     159.697 158.970 166.647  0.00  0.00    +0.000 A 
ATOM     15  C16 UNL     1     160.615 158.255 165.940  0.00  0.00    +0.000 A 
ATOM     16  C17 UNL     1     160.255 157.014 165.440  0.00  0.00    +0.000 A 
ATOM     17  C18 UNL     1     158.994 156.469 165.632  0.00  0.00    +0.000 A 
ENDROOT
BRANCH  13  18
ATOM     18  N1  UNL     1     157.506 158.848 169.004  0.00  0.00    +0.000 N 
ATOM     19  C12 UNL     1     158.545 158.745 169.847  0.00  0.00    +0.000 A 
ATOM     20  N2  UNL     1     158.099 158.264 171.018  0.00  0.00    +0.000 NA
ATOM     21  C13 UNL     1     156.789 158.057 170.936  0.00  0.00    +0.000 A 
ATOM     22  C14 UNL     1     156.413 158.429 169.656  0.00  0.00    +0.000 A 
ENDBRANCH  13  18
TORSDOF 1
ENDMDL
MODEL 5
REMARK VINA RESULT:      -6.0      2.849      4.945
REMARK  Name = ./3D_structures\o1_MMV1634492_3D.pdb
REMARK  1 active torsions:
REMARK  status: ('A' for Active; 'I' for Inactive)
REMARK    1  A    between atoms: C11_13  and  N1_14
REMARK                            x       y       z     vdW  Elec       q    Type
REMARK                         _______ _______ _______ _____ _____    ______ ____
ROOT
ATOM      1 CL1  UNL     1     155.925 156.902 170.110  0.00  0.00    +0.000 Cl
ATOM      2  C1  UNL     1     155.674 157.380 168.442  0.00  0.00    +0.000 A 
ATOM      3  C2  UNL     1     154.749 158.396 168.156  0.00  0.00    +0.000 A 
ATOM      4  C3  UNL     1     154.503 158.820 166.871  0.00  0.00    +0.000 A 
ATOM      5  C4  UNL     1     155.234 158.174 165.862  0.00  0.00    +0.000 A 
ATOM      6  C5  UNL     1     156.139 157.176 166.153  0.00  0.00    +0.000 A 
ATOM      7  C6  UNL     1     156.378 156.760 167.444  0.00  0.00    +0.000 A 
ATOM      8 CL2  UNL     1     157.042 156.383 164.867  0.00  0.00    +0.000 Cl
ATOM      9  C7  UNL     1     153.624 159.826 166.263  0.00  0.00    +0.000 C 
ATOM     10  C8  UNL     1     152.969 160.793 167.172  0.00  0.00    +0.000 C 
ATOM     11  C9  UNL     1     152.242 160.158 168.277  0.00  0.00    +0.000 A 
ATOM     12  C10 UNL     1     152.743 159.324 169.256  0.00  0.00    +0.000 A 
ATOM     13  C11 UNL     1     154.133 158.896 169.400  0.00  0.00    +0.000 C 
ATOM     14  C15 UNL     1     151.946 158.788 170.244  0.00  0.00    +0.000 A 
ATOM     15  C16 UNL     1     150.618 159.090 170.258  0.00  0.00    +0.000 A 
ATOM     16  C17 UNL     1     150.113 159.927 169.276  0.00  0.00    +0.000 A 
ATOM     17  C18 UNL     1     150.906 160.472 168.278  0.00  0.00    +0.000 A 
ENDROOT
BRANCH  13  18
ATOM     18  N1  UNL     1     154.922 159.991 169.981  0.00  0.00    +0.000 N 
ATOM     19  C12 UNL     1     154.915 160.335 171.278  0.00  0.00    +0.000 A 
ATOM     20  N2  UNL     1     155.749 161.373 171.449  0.00  0.00    +0.000 NA
ATOM     21  C13 UNL     1     156.288 161.698 170.279  0.00  0.00    +0.000 A 
ATOM     22  C14 UNL     1     155.762 160.820 169.347  0.00  0.00    +0.000 A 
ENDBRANCH  13  18
TORSDOF 1
ENDMDL
MODEL 6
REMARK VINA RESULT:      -5.9      2.162      3.286
REMARK  Name = ./3D_structures\o1_MMV1634492_3D.pdb
REMARK  1 active torsions:
REMARK  status: ('A' for Active; 'I' for Inactive)
REMARK    1  A    between atoms: C11_13  and  N1_14
REMARK                            x       y       z     vdW  Elec       q    Type
REMARK                         _______ _______ _______ _____ _____    ______ ____
ROOT
ATOM      1 CL1  UNL     1     153.462 160.071 166.584  0.00  0.00    +0.000 Cl
ATOM      2  C1  UNL     1     154.662 158.839 166.922  0.00  0.00    +0.000 A 
ATOM      3  C2  UNL     1     155.080 158.639 168.247  0.00  0.00    +0.000 A 
ATOM      4  C3  UNL     1     156.017 157.690 168.584  0.00  0.00    +0.000 A 
ATOM      5  C4  UNL     1     156.531 156.933 167.520  0.00  0.00    +0.000 A 
ATOM      6  C5  UNL     1     156.116 157.137 166.222  0.00  0.00    +0.000 A 
ATOM      7  C6  UNL     1     155.176 158.090 165.897  0.00  0.00    +0.000 A 
ATOM      8 CL2  UNL     1     156.777 156.172 164.907  0.00  0.00    +0.000 Cl
ATOM      9  C7  UNL     1     156.644 157.252 169.836  0.00  0.00    +0.000 C 
ATOM     10  C8  UNL     1     156.049 157.742 171.100  0.00  0.00    +0.000 C 
ATOM     11  C9  UNL     1     155.897 159.200 171.150  0.00  0.00    +0.000 A 
ATOM     12  C10 UNL     1     155.168 160.008 170.300  0.00  0.00    +0.000 A 
ATOM     13  C11 UNL     1     154.376 159.567 169.153  0.00  0.00    +0.000 C 
ATOM     14  C15 UNL     1     155.109 161.376 170.457  0.00  0.00    +0.000 A 
ATOM     15  C16 UNL     1     155.791 161.953 171.484  0.00  0.00    +0.000 A 
ATOM     16  C17 UNL     1     156.524 161.144 172.338  0.00  0.00    +0.000 A 
ATOM     17  C18 UNL     1     156.589 159.767 172.190  0.00  0.00    +0.000 A 
ENDROOT
BRANCH  13  18
ATOM     18  N1  UNL     1     153.112 158.988 169.629  0.00  0.00    +0.000 N 
ATOM     19  C12 UNL     1     152.078 159.698 170.107  0.00  0.00    +0.000 A 
ATOM     20  N2  UNL     1     151.097 158.847 170.446  0.00  0.00    +0.000 NA
ATOM     21  C13 UNL     1     151.489 157.602 170.192  0.00  0.00    +0.000 A 
ATOM     22  C14 UNL     1     152.770 157.694 169.673  0.00  0.00    +0.000 A 
ENDBRANCH  13  18
TORSDOF 1
ENDMDL
MODEL 7
REMARK VINA RESULT:      -5.6      3.133      5.393
REMARK  Name = ./3D_structures\o1_MMV1634492_3D.pdb
REMARK  1 active torsions:
REMARK  status: ('A' for Active; 'I' for Inactive)
REMARK    1  A    between atoms: C11_13  and  N1_14
REMARK                            x       y       z     vdW  Elec       q    Type
REMARK                         _______ _______ _______ _____ _____    ______ ____
ROOT
ATOM      1 CL1  UNL     1     156.219 162.421 171.292  0.00  0.00    +0.000 Cl
ATOM      2  C1  UNL     1     154.818 161.377 171.438  0.00  0.00    +0.000 A 
ATOM      3  C2  UNL     1     154.595 160.396 170.459  0.00  0.00    +0.000 A 
ATOM      4  C3  UNL     1     153.516 159.543 170.511  0.00  0.00    +0.000 A 
ATOM      5  C4  UNL     1     152.652 159.715 171.603  0.00  0.00    +0.000 A 
ATOM      6  C5  UNL     1     152.879 160.681 172.558  0.00  0.00    +0.000 A 
ATOM      7  C6  UNL     1     153.963 161.529 172.496  0.00  0.00    +0.000 A 
ATOM      8 CL2  UNL     1     151.779 160.874 173.918  0.00  0.00    +0.000 Cl
ATOM      9  C7  UNL     1     153.020 158.449 169.668  0.00  0.00    +0.000 C 
ATOM     10  C8  UNL     1     153.927 157.938 168.615  0.00  0.00    +0.000 C 
ATOM     11  C9  UNL     1     154.455 158.988 167.738  0.00  0.00    +0.000 A 
ATOM     12  C10 UNL     1     155.212 160.089 168.088  0.00  0.00    +0.000 A 
ATOM     13  C11 UNL     1     155.656 160.439 169.436  0.00  0.00    +0.000 C 
ATOM     14  C15 UNL     1     155.646 161.008 167.159  0.00  0.00    +0.000 A 
ATOM     15  C16 UNL     1     155.319 160.829 165.849  0.00  0.00    +0.000 A 
ATOM     16  C17 UNL     1     154.560 159.725 165.495  0.00  0.00    +0.000 A 
ATOM     17  C18 UNL     1     154.118 158.793 166.422  0.00  0.00    +0.000 A 
ENDROOT
BRANCH  13  18
ATOM     18  N1  UNL     1     156.791 159.584 169.810  0.00  0.00    +0.000 N 
ATOM     19  C12 UNL     1     156.881 158.890 170.955  0.00  0.00    +0.000 A 
ATOM     20  N2  UNL     1     158.047 158.225 170.960  0.00  0.00    +0.000 NA
ATOM     21  C13 UNL     1     158.705 158.485 169.835  0.00  0.00    +0.000 A 
ATOM     22  C14 UNL     1     157.906 159.348 169.105  0.00  0.00    +0.000 A 
ENDBRANCH  13  18
TORSDOF 1
ENDMDL
MODEL 8
REMARK VINA RESULT:      -5.5      3.398      4.886
REMARK  Name = ./3D_structures\o1_MMV1634492_3D.pdb
REMARK  1 active torsions:
REMARK  status: ('A' for Active; 'I' for Inactive)
REMARK    1  A    between atoms: C11_13  and  N1_14
REMARK                            x       y       z     vdW  Elec       q    Type
REMARK                         _______ _______ _______ _____ _____    ______ ____
ROOT
ATOM      1 CL1  UNL     1     157.695 160.769 165.991  0.00  0.00    +0.000 Cl
ATOM      2  C1  UNL     1     157.542 159.102 166.509  0.00  0.00    +0.000 A 
ATOM      3  C2  UNL     1     156.894 158.821 167.722  0.00  0.00    +0.000 A 
ATOM      4  C3  UNL     1     156.740 157.537 168.189  0.00  0.00    +0.000 A 
ATOM      5  C4  UNL     1     157.269 156.522 167.377  0.00  0.00    +0.000 A 
ATOM      6  C5  UNL     1     157.904 156.807 166.188  0.00  0.00    +0.000 A 
ATOM      7  C6  UNL     1     158.053 158.098 165.730  0.00  0.00    +0.000 A 
ATOM      8 CL2  UNL     1     158.559 155.514 165.189  0.00  0.00    +0.000 Cl
ATOM      9  C7  UNL     1     156.131 156.934 169.380  0.00  0.00    +0.000 C 
ATOM     10  C8  UNL     1     155.289 157.808 170.228  0.00  0.00    +0.000 C 
ATOM     11  C9  UNL     1     155.956 159.050 170.633  0.00  0.00    +0.000 A 
ATOM     12  C10 UNL     1     156.465 160.046 169.823  0.00  0.00    +0.000 A 
ATOM     13  C11 UNL     1     156.438 160.070 168.361  0.00  0.00    +0.000 C 
ATOM     14  C15 UNL     1     157.075 161.170 170.334  0.00  0.00    +0.000 A 
ATOM     15  C16 UNL     1     157.182 161.307 171.685  0.00  0.00    +0.000 A 
ATOM     16  C17 UNL     1     156.672 160.309 172.500  0.00  0.00    +0.000 A 
ATOM     17  C18 UNL     1     156.056 159.174 171.996  0.00  0.00    +0.000 A 
ENDROOT
BRANCH  13  18
ATOM     18  N1  UNL     1     155.090 160.438 167.907  0.00  0.00    +0.000 N 
ATOM     19  C12 UNL     1     154.599 161.687 167.898  0.00  0.00    +0.000 A 
ATOM     20  N2  UNL     1     153.345 161.650 167.421  0.00  0.00    +0.000 NA
ATOM     21  C13 UNL     1     153.026 160.394 167.124  0.00  0.00    +0.000 A 
ATOM     22  C14 UNL     1     154.135 159.625 167.433  0.00  0.00    +0.000 A 
ENDBRANCH  13  18
TORSDOF 1
ENDMDL
MODEL 9
REMARK VINA RESULT:      -5.4      3.506      6.191
REMARK  Name = ./3D_structures\o1_MMV1634492_3D.pdb
REMARK  1 active torsions:
REMARK  status: ('A' for Active; 'I' for Inactive)
REMARK    1  A    between atoms: C11_13  and  N1_14
REMARK                            x       y       z     vdW  Elec       q    Type
REMARK                         _______ _______ _______ _____ _____    ______ ____
ROOT
ATOM      1 CL1  UNL     1     158.675 160.613 169.511  0.00  0.00    +0.000 Cl
ATOM      2  C1  UNL     1     157.124 160.192 170.213  0.00  0.00    +0.000 A 
ATOM      3  C2  UNL     1     156.059 159.859 169.362  0.00  0.00    +0.000 A 
ATOM      4  C3  UNL     1     154.816 159.520 169.844  0.00  0.00    +0.000 A 
ATOM      5  C4  UNL     1     154.678 159.527 171.241  0.00  0.00    +0.000 A 
ATOM      6  C5  UNL     1     155.730 159.856 172.068  0.00  0.00    +0.000 A 
ATOM      7  C6  UNL     1     156.970 160.194 171.574  0.00  0.00    +0.000 A 
ATOM      8 CL2  UNL     1     155.529 159.856 173.816  0.00  0.00    +0.000 Cl
ATOM      9  C7  UNL     1     153.538 159.136 169.234  0.00  0.00    +0.000 C 
ATOM     10  C8  UNL     1     153.545 158.814 167.789  0.00  0.00    +0.000 C 
ATOM     11  C9  UNL     1     154.153 159.860 166.959  0.00  0.00    +0.000 A 
ATOM     12  C10 UNL     1     155.439 160.358 167.024  0.00  0.00    +0.000 A 
ATOM     13  C11 UNL     1     156.485 159.931 167.952  0.00  0.00    +0.000 C 
ATOM     14  C15 UNL     1     155.887 161.351 166.181  0.00  0.00    +0.000 A 
ATOM     15  C16 UNL     1     155.035 161.862 165.250  0.00  0.00    +0.000 A 
ATOM     16  C17 UNL     1     153.743 161.363 165.182  0.00  0.00    +0.000 A 
ATOM     17  C18 UNL     1     153.282 160.364 166.026  0.00  0.00    +0.000 A 
ENDROOT
BRANCH  13  18
ATOM     18  N1  UNL     1     157.043 158.650 167.499  0.00  0.00    +0.000 N 
ATOM     19  C12 UNL     1     156.740 157.453 168.028  0.00  0.00    +0.000 A 
ATOM     20  N2  UNL     1     157.431 156.509 167.370  0.00  0.00    +0.000 NA
ATOM     21  C13 UNL     1     158.171 157.084 166.428  0.00  0.00    +0.000 A 
ATOM     22  C14 UNL     1     157.924 158.443 166.511  0.00  0.00    +0.000 A 
ENDBRANCH  13  18
TORSDOF 1
ENDMDL
