MODEL 1
REMARK VINA RESULT:      -6.0      0.000      0.000
REMARK  Name = ./3D_structures\o20_MMV1634359_3D.pdb
REMARK  10 active torsions:
REMARK  status: ('A' for Active; 'I' for Inactive)
REMARK    1  A    between atoms: N1_1  and  C1_2
REMARK    2  A    between atoms: N1_1  and  C12_13
REMARK    3  A    between atoms: N1_1  and  C21_22
REMARK    4  A    between atoms: C1_2  and  C2_3
REMARK    5  A    between atoms: C12_13  and  C13_14
REMARK    6  A    between atoms: C14_15  and  C15_16
REMARK    7  A    between atoms: C16_17  and  C17_18
REMARK    8  A    between atoms: C17_18  and  C18_19
REMARK    9  A    between atoms: C17_18  and  C19_20
REMARK   10  A    between atoms: C17_18  and  C20_21
REMARK                            x       y       z     vdW  Elec       q    Type
REMARK                         _______ _______ _______ _____ _____    ______ ____
ROOT
ATOM      1  N1  UNL     1     156.792 156.986 165.413  0.00  0.00    +0.000 NA
ATOM      2  C21 UNL     1     157.488 156.587 164.250  0.00  0.00    +0.000 C 
ENDROOT
BRANCH   1   3
ATOM      3  C1  UNL     1     157.146 156.440 166.649  0.00  0.00    +0.000 C 
BRANCH   3   4
ATOM      4  C2  UNL     1     157.889 157.380 167.516  0.00  0.00    +0.000 A 
ATOM      5  C3  UNL     1     159.038 158.044 167.166  0.00  0.00    +0.000 A 
ATOM      6  C4  UNL     1     159.744 158.887 168.002  0.00  0.00    +0.000 A 
ATOM      7  C5  UNL     1     159.274 159.081 169.274  0.00  0.00    +0.000 A 
ATOM      8  C6  UNL     1     158.117 158.428 169.672  0.00  0.00    +0.000 A 
ATOM      9  C7  UNL     1     157.687 158.663 170.977  0.00  0.00    +0.000 A 
ATOM     10  C8  UNL     1     156.536 158.036 171.425  0.00  0.00    +0.000 A 
ATOM     11  C9  UNL     1     155.852 157.202 170.568  0.00  0.00    +0.000 A 
ATOM     12  C10 UNL     1     156.270 156.959 169.263  0.00  0.00    +0.000 A 
ATOM     13  C11 UNL     1     157.424 157.594 168.830  0.00  0.00    +0.000 A 
ENDBRANCH   3   4
ENDBRANCH   1   3
BRANCH   1  14
ATOM     14  C12 UNL     1     155.955 158.119 165.350  0.00  0.00    +0.000 C 
BRANCH  14  15
ATOM     15  C13 UNL     1     154.856 158.019 166.357  0.00  0.00    +0.000 C 
ATOM     16  C14 UNL     1     154.577 159.093 167.068  0.00  0.00    +0.000 C 
BRANCH  16  17
ATOM     17  C15 UNL     1     153.522 159.060 168.059  0.00  0.00    +0.000 C 
ATOM     18  C16 UNL     1     152.643 159.022 168.879  0.00  0.00    +0.000 C 
BRANCH  18  19
ATOM     19  C17 UNL     1     151.572 158.991 169.861  0.00  0.00    +0.000 C 
ATOM     20  C18 UNL     1     152.127 159.607 171.147  0.00  0.00    +0.000 C 
ATOM     21  C19 UNL     1     151.185 157.559 170.224  0.00  0.00    +0.000 C 
ATOM     22  C20 UNL     1     150.367 159.784 169.465  0.00  0.00    +0.000 C 
ENDBRANCH  18  19
ENDBRANCH  16  17
ENDBRANCH  14  15
ENDBRANCH   1  14
TORSDOF 6
ENDMDL
MODEL 2
REMARK VINA RESULT:      -5.6      3.827      8.285
REMARK  Name = ./3D_structures\o20_MMV1634359_3D.pdb
REMARK  10 active torsions:
REMARK  status: ('A' for Active; 'I' for Inactive)
REMARK    1  A    between atoms: N1_1  and  C1_2
REMARK    2  A    between atoms: N1_1  and  C12_13
REMARK    3  A    between atoms: N1_1  and  C21_22
REMARK    4  A    between atoms: C1_2  and  C2_3
REMARK    5  A    between atoms: C12_13  and  C13_14
REMARK    6  A    between atoms: C14_15  and  C15_16
REMARK    7  A    between atoms: C16_17  and  C17_18
REMARK    8  A    between atoms: C17_18  and  C18_19
REMARK    9  A    between atoms: C17_18  and  C19_20
REMARK   10  A    between atoms: C17_18  and  C20_21
REMARK                            x       y       z     vdW  Elec       q    Type
REMARK                         _______ _______ _______ _____ _____    ______ ____
ROOT
ATOM      1  N1  UNL     1     160.917 157.341 164.526  0.00  0.00    +0.000 NA
ATOM      2  C21 UNL     1     160.894 157.007 163.153  0.00  0.00    +0.000 C 
ENDROOT
BRANCH   1   3
ATOM      3  C1  UNL     1     160.018 158.289 165.019  0.00  0.00    +0.000 C 
BRANCH   3   4
ATOM      4  C2  UNL     1     158.827 157.693 165.661  0.00  0.00    +0.000 A 
ATOM      5  C3  UNL     1     157.851 156.978 165.013  0.00  0.00    +0.000 A 
ATOM      6  C4  UNL     1     156.721 156.463 165.620  0.00  0.00    +0.000 A 
ATOM      7  C5  UNL     1     156.553 156.676 166.963  0.00  0.00    +0.000 A 
ATOM      8  C6  UNL     1     157.514 157.395 167.657  0.00  0.00    +0.000 A 
ATOM      9  C7  UNL     1     157.289 157.579 169.020  0.00  0.00    +0.000 A 
ATOM     10  C8  UNL     1     158.219 158.290 169.762  0.00  0.00    +0.000 A 
ATOM     11  C9  UNL     1     159.336 158.791 169.130  0.00  0.00    +0.000 A 
ATOM     12  C10 UNL     1     159.572 158.614 167.770  0.00  0.00    +0.000 A 
ATOM     13  C11 UNL     1     158.633 157.900 167.042  0.00  0.00    +0.000 A 
ENDBRANCH   3   4
ENDBRANCH   1   3
BRANCH   1  14
ATOM     14  C12 UNL     1     161.642 156.520 165.413  0.00  0.00    +0.000 C 
BRANCH  14  15
ATOM     15  C13 UNL     1     162.781 157.276 166.018  0.00  0.00    +0.000 C 
ATOM     16  C14 UNL     1     162.976 157.152 167.316  0.00  0.00    +0.000 C 
BRANCH  16  17
ATOM     17  C15 UNL     1     164.063 157.858 167.961  0.00  0.00    +0.000 C 
ATOM     18  C16 UNL     1     164.973 158.438 168.493  0.00  0.00    +0.000 C 
BRANCH  18  19
ATOM     19  C17 UNL     1     166.067 159.132 169.151  0.00  0.00    +0.000 C 
ATOM     20  C18 UNL     1     166.760 159.985 168.087  0.00  0.00    +0.000 C 
ATOM     21  C19 UNL     1     167.128 158.157 169.654  0.00  0.00    +0.000 C 
ATOM     22  C20 UNL     1     165.626 160.050 170.248  0.00  0.00    +0.000 C 
ENDBRANCH  18  19
ENDBRANCH  16  17
ENDBRANCH  14  15
ENDBRANCH   1  14
TORSDOF 6
ENDMDL
MODEL 3
REMARK VINA RESULT:      -5.6      2.423      4.465
REMARK  Name = ./3D_structures\o20_MMV1634359_3D.pdb
REMARK  10 active torsions:
REMARK  status: ('A' for Active; 'I' for Inactive)
REMARK    1  A    between atoms: N1_1  and  C1_2
REMARK    2  A    between atoms: N1_1  and  C12_13
REMARK    3  A    between atoms: N1_1  and  C21_22
REMARK    4  A    between atoms: C1_2  and  C2_3
REMARK    5  A    between atoms: C12_13  and  C13_14
REMARK    6  A    between atoms: C14_15  and  C15_16
REMARK    7  A    between atoms: C16_17  and  C17_18
REMARK    8  A    between atoms: C17_18  and  C18_19
REMARK    9  A    between atoms: C17_18  and  C19_20
REMARK   10  A    between atoms: C17_18  and  C20_21
REMARK                            x       y       z     vdW  Elec       q    Type
REMARK                         _______ _______ _______ _____ _____    ______ ____
ROOT
ATOM      1  N1  UNL     1     153.813 158.464 168.241  0.00  0.00    +0.000 NA
ATOM      2  C21 UNL     1     154.124 159.379 167.211  0.00  0.00    +0.000 C 
ENDROOT
BRANCH   1   3
ATOM      3  C1  UNL     1     154.679 157.399 168.500  0.00  0.00    +0.000 C 
BRANCH   3   4
ATOM      4  C2  UNL     1     155.871 157.787 169.285  0.00  0.00    +0.000 A 
ATOM      5  C3  UNL     1     155.869 158.125 170.615  0.00  0.00    +0.000 A 
ATOM      6  C4  UNL     1     156.985 158.527 171.324  0.00  0.00    +0.000 A 
ATOM      7  C5  UNL     1     158.183 158.597 170.663  0.00  0.00    +0.000 A 
ATOM      8  C6  UNL     1     158.231 158.266 169.317  0.00  0.00    +0.000 A 
ATOM      9  C7  UNL     1     159.476 158.356 168.698  0.00  0.00    +0.000 A 
ATOM     10  C8  UNL     1     159.580 158.036 167.354  0.00  0.00    +0.000 A 
ATOM     11  C9  UNL     1     158.450 157.638 166.673  0.00  0.00    +0.000 A 
ATOM     12  C10 UNL     1     157.201 157.543 167.280  0.00  0.00    +0.000 A 
ATOM     13  C11 UNL     1     157.114 157.867 168.625  0.00  0.00    +0.000 A 
ENDBRANCH   3   4
ENDBRANCH   1   3
BRANCH   1  14
ATOM     14  C12 UNL     1     152.798 158.794 169.160  0.00  0.00    +0.000 C 
BRANCH  14  15
ATOM     15  C13 UNL     1     152.291 157.568 169.849  0.00  0.00    +0.000 C 
ATOM     16  C14 UNL     1     151.029 157.556 170.228  0.00  0.00    +0.000 C 
BRANCH  16  17
ATOM     17  C15 UNL     1     150.479 156.398 170.900  0.00  0.00    +0.000 C 
ATOM     18  C16 UNL     1     150.025 155.440 171.469  0.00  0.00    +0.000 C 
BRANCH  18  19
ATOM     19  C17 UNL     1     149.490 154.272 172.148  0.00  0.00    +0.000 C 
ATOM     20  C18 UNL     1     148.099 154.651 172.660  0.00  0.00    +0.000 C 
ATOM     21  C19 UNL     1     150.306 153.921 173.389  0.00  0.00    +0.000 C 
ATOM     22  C20 UNL     1     149.333 153.077 171.260  0.00  0.00    +0.000 C 
ENDBRANCH  18  19
ENDBRANCH  16  17
ENDBRANCH  14  15
ENDBRANCH   1  14
TORSDOF 6
ENDMDL
MODEL 4
REMARK VINA RESULT:      -5.5      3.664      8.110
REMARK  Name = ./3D_structures\o20_MMV1634359_3D.pdb
REMARK  10 active torsions:
REMARK  status: ('A' for Active; 'I' for Inactive)
REMARK    1  A    between atoms: N1_1  and  C1_2
REMARK    2  A    between atoms: N1_1  and  C12_13
REMARK    3  A    between atoms: N1_1  and  C21_22
REMARK    4  A    between atoms: C1_2  and  C2_3
REMARK    5  A    between atoms: C12_13  and  C13_14
REMARK    6  A    between atoms: C14_15  and  C15_16
REMARK    7  A    between atoms: C16_17  and  C17_18
REMARK    8  A    between atoms: C17_18  and  C18_19
REMARK    9  A    between atoms: C17_18  and  C19_20
REMARK   10  A    between atoms: C17_18  and  C20_21
REMARK                            x       y       z     vdW  Elec       q    Type
REMARK                         _______ _______ _______ _____ _____    ______ ____
ROOT
ATOM      1  N1  UNL     1     159.490 158.262 166.591  0.00  0.00    +0.000 NA
ATOM      2  C21 UNL     1     159.421 159.595 166.130  0.00  0.00    +0.000 C 
ENDROOT
BRANCH   1   3
ATOM      3  C1  UNL     1     158.317 157.599 166.961  0.00  0.00    +0.000 C 
BRANCH   3   4
ATOM      4  C2  UNL     1     157.851 157.944 168.321  0.00  0.00    +0.000 A 
ATOM      5  C3  UNL     1     158.662 158.256 169.383  0.00  0.00    +0.000 A 
ATOM      6  C4  UNL     1     158.212 158.535 170.659  0.00  0.00    +0.000 A 
ATOM      7  C5  UNL     1     156.863 158.501 170.893  0.00  0.00    +0.000 A 
ATOM      8  C6  UNL     1     156.005 158.187 169.849  0.00  0.00    +0.000 A 
ATOM      9  C7  UNL     1     154.644 158.167 170.147  0.00  0.00    +0.000 A 
ATOM     10  C8  UNL     1     153.744 157.861 169.139  0.00  0.00    +0.000 A 
ATOM     11  C9  UNL     1     154.221 157.588 167.876  0.00  0.00    +0.000 A 
ATOM     12  C10 UNL     1     155.578 157.605 167.566  0.00  0.00    +0.000 A 
ATOM     13  C11 UNL     1     156.466 157.914 168.585  0.00  0.00    +0.000 A 
ENDBRANCH   3   4
ENDBRANCH   1   3
BRANCH   1  14
ATOM     14  C12 UNL     1     160.686 157.540 166.407  0.00  0.00    +0.000 C 
BRANCH  14  15
ATOM     15  C13 UNL     1     161.816 158.199 167.130  0.00  0.00    +0.000 C 
ATOM     16  C14 UNL     1     162.973 157.568 167.162  0.00  0.00    +0.000 C 
BRANCH  16  17
ATOM     17  C15 UNL     1     164.106 158.154 167.846  0.00  0.00    +0.000 C 
ATOM     18  C16 UNL     1     165.047 158.634 168.423  0.00  0.00    +0.000 C 
BRANCH  18  19
ATOM     19  C17 UNL     1     166.173 159.229 169.123  0.00  0.00    +0.000 C 
ATOM     20  C18 UNL     1     167.022 158.076 169.664  0.00  0.00    +0.000 C 
ATOM     21  C19 UNL     1     165.718 160.017 170.348  0.00  0.00    +0.000 C 
ATOM     22  C20 UNL     1     167.054 160.065 168.249  0.00  0.00    +0.000 C 
ENDBRANCH  18  19
ENDBRANCH  16  17
ENDBRANCH  14  15
ENDBRANCH   1  14
TORSDOF 6
ENDMDL
MODEL 5
REMARK VINA RESULT:      -5.5      3.384      7.245
REMARK  Name = ./3D_structures\o20_MMV1634359_3D.pdb
REMARK  10 active torsions:
REMARK  status: ('A' for Active; 'I' for Inactive)
REMARK    1  A    between atoms: N1_1  and  C1_2
REMARK    2  A    between atoms: N1_1  and  C12_13
REMARK    3  A    between atoms: N1_1  and  C21_22
REMARK    4  A    between atoms: C1_2  and  C2_3
REMARK    5  A    between atoms: C12_13  and  C13_14
REMARK    6  A    between atoms: C14_15  and  C15_16
REMARK    7  A    between atoms: C16_17  and  C17_18
REMARK    8  A    between atoms: C17_18  and  C18_19
REMARK    9  A    between atoms: C17_18  and  C19_20
REMARK   10  A    between atoms: C17_18  and  C20_21
REMARK                            x       y       z     vdW  Elec       q    Type
REMARK                         _______ _______ _______ _____ _____    ______ ____
ROOT
ATOM      1  N1  UNL     1     156.213 159.799 172.102  0.00  0.00    +0.000 NA
ATOM      2  C21 UNL     1     155.321 159.738 173.195  0.00  0.00    +0.000 C 
ENDROOT
BRANCH   1   3
ATOM      3  C1  UNL     1     156.867 158.638 171.681  0.00  0.00    +0.000 C 
BRANCH   3   4
ATOM      4  C2  UNL     1     156.444 158.177 170.341  0.00  0.00    +0.000 A 
ATOM      5  C3  UNL     1     155.179 157.765 170.007  0.00  0.00    +0.000 A 
ATOM      6  C4  UNL     1     154.809 157.297 168.760  0.00  0.00    +0.000 A 
ATOM      7  C5  UNL     1     155.766 157.236 167.781  0.00  0.00    +0.000 A 
ATOM      8  C6  UNL     1     157.059 157.641 168.076  0.00  0.00    +0.000 A 
ATOM      9  C7  UNL     1     157.988 157.555 167.041  0.00  0.00    +0.000 A 
ATOM     10  C8  UNL     1     159.295 157.948 167.281  0.00  0.00    +0.000 A 
ATOM     11  C9  UNL     1     159.634 158.411 168.534  0.00  0.00    +0.000 A 
ATOM     12  C10 UNL     1     158.715 158.502 169.575  0.00  0.00    +0.000 A 
ATOM     13  C11 UNL     1     157.412 158.105 169.318  0.00  0.00    +0.000 A 
ENDBRANCH   3   4
ENDBRANCH   1   3
BRANCH   1  14
ATOM     14  C12 UNL     1     156.216 160.950 171.288  0.00  0.00    +0.000 C 
BRANCH  14  15
ATOM     15  C13 UNL     1     157.568 161.587 171.280  0.00  0.00    +0.000 C 
ATOM     16  C14 UNL     1     158.147 161.778 170.112  0.00  0.00    +0.000 C 
BRANCH  16  17
ATOM     17  C15 UNL     1     159.457 162.391 170.038  0.00  0.00    +0.000 C 
ATOM     18  C16 UNL     1     160.549 162.891 169.982  0.00  0.00    +0.000 C 
BRANCH  18  19
ATOM     19  C17 UNL     1     161.863 163.510 169.926  0.00  0.00    +0.000 C 
ATOM     20  C18 UNL     1     161.799 164.595 168.848  0.00  0.00    +0.000 C 
ATOM     21  C19 UNL     1     162.929 162.524 169.456  0.00  0.00    +0.000 C 
ATOM     22  C20 UNL     1     162.275 164.170 171.204  0.00  0.00    +0.000 C 
ENDBRANCH  18  19
ENDBRANCH  16  17
ENDBRANCH  14  15
ENDBRANCH   1  14
TORSDOF 6
ENDMDL
MODEL 6
REMARK VINA RESULT:      -5.4      1.843      4.417
REMARK  Name = ./3D_structures\o20_MMV1634359_3D.pdb
REMARK  10 active torsions:
REMARK  status: ('A' for Active; 'I' for Inactive)
REMARK    1  A    between atoms: N1_1  and  C1_2
REMARK    2  A    between atoms: N1_1  and  C12_13
REMARK    3  A    between atoms: N1_1  and  C21_22
REMARK    4  A    between atoms: C1_2  and  C2_3
REMARK    5  A    between atoms: C12_13  and  C13_14
REMARK    6  A    between atoms: C14_15  and  C15_16
REMARK    7  A    between atoms: C16_17  and  C17_18
REMARK    8  A    between atoms: C17_18  and  C18_19
REMARK    9  A    between atoms: C17_18  and  C19_20
REMARK   10  A    between atoms: C17_18  and  C20_21
REMARK                            x       y       z     vdW  Elec       q    Type
REMARK                         _______ _______ _______ _____ _____    ______ ____
ROOT
ATOM      1  N1  UNL     1     158.001 157.374 166.681  0.00  0.00    +0.000 NA
ATOM      2  C21 UNL     1     158.544 156.845 165.488  0.00  0.00    +0.000 C 
ENDROOT
BRANCH   1   3
ATOM      3  C1  UNL     1     156.696 157.043 167.049  0.00  0.00    +0.000 C 
BRANCH   3   4
ATOM      4  C2  UNL     1     155.709 158.097 166.732  0.00  0.00    +0.000 A 
ATOM      5  C3  UNL     1     155.730 158.893 165.614  0.00  0.00    +0.000 A 
ATOM      6  C4  UNL     1     154.824 159.903 165.351  0.00  0.00    +0.000 A 
ATOM      7  C5  UNL     1     153.831 160.136 166.265  0.00  0.00    +0.000 A 
ATOM      8  C6  UNL     1     153.772 159.357 167.411  0.00  0.00    +0.000 A 
ATOM      9  C7  UNL     1     152.741 159.640 168.304  0.00  0.00    +0.000 A 
ATOM     10  C8  UNL     1     152.636 158.891 169.465  0.00  0.00    +0.000 A 
ATOM     11  C9  UNL     1     153.553 157.890 169.699  0.00  0.00    +0.000 A 
ATOM     12  C10 UNL     1     154.587 157.597 168.815  0.00  0.00    +0.000 A 
ATOM     13  C11 UNL     1     154.678 158.355 167.658  0.00  0.00    +0.000 A 
ENDBRANCH   3   4
ENDBRANCH   1   3
BRANCH   1  14
ATOM     14  C12 UNL     1     158.866 157.991 167.607  0.00  0.00    +0.000 C 
BRANCH  14  15
ATOM     15  C13 UNL     1     158.135 158.332 168.865  0.00  0.00    +0.000 C 
ATOM     16  C14 UNL     1     157.973 159.608 169.152  0.00  0.00    +0.000 C 
BRANCH  16  17
ATOM     17  C15 UNL     1     157.274 160.003 170.356  0.00  0.00    +0.000 C 
ATOM     18  C16 UNL     1     156.700 160.326 171.364  0.00  0.00    +0.000 C 
BRANCH  18  19
ATOM     19  C17 UNL     1     155.992 160.705 172.574  0.00  0.00    +0.000 C 
ATOM     20  C18 UNL     1     154.717 161.431 172.138  0.00  0.00    +0.000 C 
ATOM     21  C19 UNL     1     156.785 161.719 173.394  0.00  0.00    +0.000 C 
ATOM     22  C20 UNL     1     155.580 159.542 173.422  0.00  0.00    +0.000 C 
ENDBRANCH  18  19
ENDBRANCH  16  17
ENDBRANCH  14  15
ENDBRANCH   1  14
TORSDOF 6
ENDMDL
MODEL 7
REMARK VINA RESULT:      -5.3      3.729      8.121
REMARK  Name = ./3D_structures\o20_MMV1634359_3D.pdb
REMARK  10 active torsions:
REMARK  status: ('A' for Active; 'I' for Inactive)
REMARK    1  A    between atoms: N1_1  and  C1_2
REMARK    2  A    between atoms: N1_1  and  C12_13
REMARK    3  A    between atoms: N1_1  and  C21_22
REMARK    4  A    between atoms: C1_2  and  C2_3
REMARK    5  A    between atoms: C12_13  and  C13_14
REMARK    6  A    between atoms: C14_15  and  C15_16
REMARK    7  A    between atoms: C16_17  and  C17_18
REMARK    8  A    between atoms: C17_18  and  C18_19
REMARK    9  A    between atoms: C17_18  and  C19_20
REMARK   10  A    between atoms: C17_18  and  C20_21
REMARK                            x       y       z     vdW  Elec       q    Type
REMARK                         _______ _______ _______ _____ _____    ______ ____
ROOT
ATOM      1  N1  UNL     1     159.144 158.181 167.521  0.00  0.00    +0.000 NA
ATOM      2  C21 UNL     1     157.850 158.214 166.955  0.00  0.00    +0.000 C 
ENDROOT
BRANCH   1   3
ATOM      3  C1  UNL     1     159.293 158.294 168.905  0.00  0.00    +0.000 C 
BRANCH   3   4
ATOM      4  C2  UNL     1     158.845 159.598 169.440  0.00  0.00    +0.000 A 
ATOM      5  C3  UNL     1     159.318 160.823 169.044  0.00  0.00    +0.000 A 
ATOM      6  C4  UNL     1     158.920 162.031 169.584  0.00  0.00    +0.000 A 
ATOM      7  C5  UNL     1     157.987 162.016 170.587  0.00  0.00    +0.000 A 
ATOM      8  C6  UNL     1     157.482 160.799 171.020  0.00  0.00    +0.000 A 
ATOM      9  C7  UNL     1     156.537 160.847 172.043  0.00  0.00    +0.000 A 
ATOM     10  C8  UNL     1     156.000 159.660 172.513  0.00  0.00    +0.000 A 
ATOM     11  C9  UNL     1     156.415 158.471 171.955  0.00  0.00    +0.000 A 
ATOM     12  C10 UNL     1     157.358 158.410 170.933  0.00  0.00    +0.000 A 
ATOM     13  C11 UNL     1     157.886 159.607 170.474  0.00  0.00    +0.000 A 
ENDBRANCH   3   4
ENDBRANCH   1   3
BRANCH   1  14
ATOM     14  C12 UNL     1     160.225 157.759 166.722  0.00  0.00    +0.000 C 
BRANCH  14  15
ATOM     15  C13 UNL     1     161.509 158.336 167.224  0.00  0.00    +0.000 C 
ATOM     16  C14 UNL     1     162.561 157.543 167.268  0.00  0.00    +0.000 C 
BRANCH  16  17
ATOM     17  C15 UNL     1     163.833 158.043 167.745  0.00  0.00    +0.000 C 
ATOM     18  C16 UNL     1     164.886 158.461 168.152  0.00  0.00    +0.000 C 
BRANCH  18  19
ATOM     19  C17 UNL     1     166.156 158.980 168.629  0.00  0.00    +0.000 C 
ATOM     20  C18 UNL     1     165.894 160.397 169.144  0.00  0.00    +0.000 C 
ATOM     21  C19 UNL     1     167.163 159.133 167.492  0.00  0.00    +0.000 C 
ATOM     22  C20 UNL     1     166.744 158.192 169.758  0.00  0.00    +0.000 C 
ENDBRANCH  18  19
ENDBRANCH  16  17
ENDBRANCH  14  15
ENDBRANCH   1  14
TORSDOF 6
ENDMDL
MODEL 8
REMARK VINA RESULT:      -5.3      1.690      2.505
REMARK  Name = ./3D_structures\o20_MMV1634359_3D.pdb
REMARK  10 active torsions:
REMARK  status: ('A' for Active; 'I' for Inactive)
REMARK    1  A    between atoms: N1_1  and  C1_2
REMARK    2  A    between atoms: N1_1  and  C12_13
REMARK    3  A    between atoms: N1_1  and  C21_22
REMARK    4  A    between atoms: C1_2  and  C2_3
REMARK    5  A    between atoms: C12_13  and  C13_14
REMARK    6  A    between atoms: C14_15  and  C15_16
REMARK    7  A    between atoms: C16_17  and  C17_18
REMARK    8  A    between atoms: C17_18  and  C18_19
REMARK    9  A    between atoms: C17_18  and  C19_20
REMARK   10  A    between atoms: C17_18  and  C20_21
REMARK                            x       y       z     vdW  Elec       q    Type
REMARK                         _______ _______ _______ _____ _____    ______ ____
ROOT
ATOM      1  N1  UNL     1     158.649 158.077 167.540  0.00  0.00    +0.000 NA
ATOM      2  C21 UNL     1     159.202 158.883 166.520  0.00  0.00    +0.000 C 
ENDROOT
BRANCH   1   3
ATOM      3  C1  UNL     1     159.061 158.261 168.862  0.00  0.00    +0.000 C 
BRANCH   3   4
ATOM      4  C2  UNL     1     158.656 159.565 169.429  0.00  0.00    +0.000 A 
ATOM      5  C3  UNL     1     159.117 160.789 169.012  0.00  0.00    +0.000 A 
ATOM      6  C4  UNL     1     158.761 161.997 169.581  0.00  0.00    +0.000 A 
ATOM      7  C5  UNL     1     157.886 161.984 170.635  0.00  0.00    +0.000 A 
ATOM      8  C6  UNL     1     157.396 160.769 171.090  0.00  0.00    +0.000 A 
ATOM      9  C7  UNL     1     156.511 160.819 172.165  0.00  0.00    +0.000 A 
ATOM     10  C8  UNL     1     155.990 159.634 172.659  0.00  0.00    +0.000 A 
ATOM     11  C9  UNL     1     156.363 158.445 172.071  0.00  0.00    +0.000 A 
ATOM     12  C10 UNL     1     157.246 158.381 170.998  0.00  0.00    +0.000 A 
ATOM     13  C11 UNL     1     157.757 159.576 170.515  0.00  0.00    +0.000 A 
ENDBRANCH   3   4
ENDBRANCH   1   3
BRANCH   1  14
ATOM     14  C12 UNL     1     157.504 157.307 167.254  0.00  0.00    +0.000 C 
BRANCH  14  15
ATOM     15  C13 UNL     1     156.272 157.984 167.761  0.00  0.00    +0.000 C 
ATOM     16  C14 UNL     1     155.377 157.242 168.382  0.00  0.00    +0.000 C 
BRANCH  16  17
ATOM     17  C15 UNL     1     154.163 157.839 168.897  0.00  0.00    +0.000 C 
ATOM     18  C16 UNL     1     153.150 158.324 169.328  0.00  0.00    +0.000 C 
BRANCH  18  19
ATOM     19  C17 UNL     1     151.922 158.916 169.830  0.00  0.00    +0.000 C 
ATOM     20  C18 UNL     1     152.260 159.578 171.168  0.00  0.00    +0.000 C 
ATOM     21  C19 UNL     1     150.875 157.852 170.148  0.00  0.00    +0.000 C 
ATOM     22  C20 UNL     1     151.352 159.973 168.937  0.00  0.00    +0.000 C 
ENDBRANCH  18  19
ENDBRANCH  16  17
ENDBRANCH  14  15
ENDBRANCH   1  14
TORSDOF 6
ENDMDL
MODEL 9
REMARK VINA RESULT:      -5.3      2.194      5.827
REMARK  Name = ./3D_structures\o20_MMV1634359_3D.pdb
REMARK  10 active torsions:
REMARK  status: ('A' for Active; 'I' for Inactive)
REMARK    1  A    between atoms: N1_1  and  C1_2
REMARK    2  A    between atoms: N1_1  and  C12_13
REMARK    3  A    between atoms: N1_1  and  C21_22
REMARK    4  A    between atoms: C1_2  and  C2_3
REMARK    5  A    between atoms: C12_13  and  C13_14
REMARK    6  A    between atoms: C14_15  and  C15_16
REMARK    7  A    between atoms: C16_17  and  C17_18
REMARK    8  A    between atoms: C17_18  and  C18_19
REMARK    9  A    between atoms: C17_18  and  C19_20
REMARK   10  A    between atoms: C17_18  and  C20_21
REMARK                            x       y       z     vdW  Elec       q    Type
REMARK                         _______ _______ _______ _____ _____    ______ ____
ROOT
ATOM      1  N1  UNL     1     154.007 159.971 167.875  0.00  0.00    +0.000 NA
ATOM      2  C21 UNL     1     154.321 161.345 167.973  0.00  0.00    +0.000 C 
ENDROOT
BRANCH   1   3
ATOM      3  C1  UNL     1     153.724 159.245 169.034  0.00  0.00    +0.000 C 
BRANCH   3   4
ATOM      4  C2  UNL     1     154.883 159.110 169.942  0.00  0.00    +0.000 A 
ATOM      5  C3  UNL     1     156.095 158.561 169.605  0.00  0.00    +0.000 A 
ATOM      6  C4  UNL     1     157.155 158.404 170.477  0.00  0.00    +0.000 A 
ATOM      7  C5  UNL     1     156.997 158.821 171.772  0.00  0.00    +0.000 A 
ATOM      8  C6  UNL     1     155.787 159.380 172.157  0.00  0.00    +0.000 A 
ATOM      9  C7  UNL     1     155.685 159.785 173.487  0.00  0.00    +0.000 A 
ATOM     10  C8  UNL     1     154.498 160.351 173.924  0.00  0.00    +0.000 A 
ATOM     11  C9  UNL     1     153.459 160.497 173.031  0.00  0.00    +0.000 A 
ATOM     12  C10 UNL     1     153.548 160.096 171.701  0.00  0.00    +0.000 A 
ATOM     13  C11 UNL     1     154.743 159.532 171.280  0.00  0.00    +0.000 A 
ENDBRANCH   3   4
ENDBRANCH   1   3
BRANCH   1  14
ATOM     14  C12 UNL     1     153.714 159.429 166.607  0.00  0.00    +0.000 C 
BRANCH  14  15
ATOM     15  C13 UNL     1     154.943 158.849 165.984  0.00  0.00    +0.000 C 
ATOM     16  C14 UNL     1     155.173 157.564 166.165  0.00  0.00    +0.000 C 
BRANCH  16  17
ATOM     17  C15 UNL     1     156.346 156.944 165.587  0.00  0.00    +0.000 C 
ATOM     18  C16 UNL     1     157.327 156.439 165.107  0.00  0.00    +0.000 C 
BRANCH  18  19
ATOM     19  C17 UNL     1     158.502 155.825 164.511  0.00  0.00    +0.000 C 
ATOM     20  C18 UNL     1     159.723 156.543 165.090  0.00  0.00    +0.000 C 
ATOM     21  C19 UNL     1     158.557 156.066 163.005  0.00  0.00    +0.000 C 
ATOM     22  C20 UNL     1     158.646 154.369 164.822  0.00  0.00    +0.000 C 
ENDBRANCH  18  19
ENDBRANCH  16  17
ENDBRANCH  14  15
ENDBRANCH   1  14
TORSDOF 6
ENDMDL
