MODEL 1
REMARK VINA RESULT:      -6.7      0.000      0.000
REMARK  Name = ./3D_structures\o21_MMV1782110_3D.pdb
REMARK  6 active torsions:
REMARK  status: ('A' for Active; 'I' for Inactive)
REMARK    1  A    between atoms: C2_3  and  C3_4
REMARK    2  A    between atoms: C6_7  and  C7_8
REMARK    3  A    between atoms: C7_8  and  N1_9
REMARK    4  A    between atoms: C8_10  and  C9_12
REMARK    5  A    between atoms: C9_12  and  C10_13
REMARK    6  A    between atoms: C10_13  and  C11_14
REMARK                            x       y       z     vdW  Elec       q    Type
REMARK                         _______ _______ _______ _____ _____    ______ ____
ROOT
ATOM      1  N1  UNL     1     154.458 160.412 170.701  0.00  0.00    +0.000 N 
ATOM      2  C8  UNL     1     155.185 160.224 171.905  0.00  0.00    +0.000 C 
ATOM      3  O1  UNL     1     154.659 160.233 173.038  0.00  0.00    +0.000 OA
ATOM      4  H5  UNL     1     154.980 160.389 169.796  0.00  0.00    +0.000 HD
ENDROOT
BRANCH   1   5
ATOM      5  C7  UNL     1     153.046 160.626 170.719  0.00  0.00    +0.000 C 
BRANCH   5   9
ATOM      6  C3  UNL     1     150.692 157.032 170.873  0.00  0.00    +0.000 A 
ATOM      7  C4  UNL     1     151.714 157.165 169.968  0.00  0.00    +0.000 A 
ATOM      8  C5  UNL     1     152.469 158.345 169.933  0.00  0.00    +0.000 A 
ATOM      9  C6  UNL     1     152.224 159.400 170.787  0.00  0.00    +0.000 A 
ATOM     10  C18 UNL     1     151.190 159.252 171.697  0.00  0.00    +0.000 A 
ATOM     11  C19 UNL     1     150.440 158.079 171.733  0.00  0.00    +0.000 A 
BRANCH   6  14
ATOM     12  F1  UNL     1     148.111 156.928 169.879  0.00  0.00    +0.000 F 
ATOM     13  C1  UNL     1     148.604 155.799 170.421  0.00  0.00    +0.000 A 
ATOM     14  C2  UNL     1     149.893 155.813 170.929  0.00  0.00    +0.000 A 
ATOM     15  C20 UNL     1     150.404 154.661 171.486  0.00  0.00    +0.000 A 
ATOM     16  C21 UNL     1     149.641 153.508 171.537  0.00  0.00    +0.000 A 
ATOM     17  C22 UNL     1     148.353 153.476 171.034  0.00  0.00    +0.000 A 
ATOM     18  C23 UNL     1     147.863 154.649 170.479  0.00  0.00    +0.000 A 
ENDBRANCH   6  14
ENDBRANCH   5   9
ENDBRANCH   1   5
BRANCH   2  19
ATOM     19  C9  UNL     1     156.663 160.002 171.846  0.00  0.00    +0.000 C 
BRANCH  19  20
ATOM     20  C10 UNL     1     156.996 158.548 171.669  0.00  0.00    +0.000 C 
BRANCH  20  21
ATOM     21  C11 UNL     1     157.321 158.241 170.253  0.00  0.00    +0.000 A 
ATOM     22  C12 UNL     1     156.396 157.603 169.445  0.00  0.00    +0.000 A 
ATOM     23  C13 UNL     1     156.695 157.316 168.131  0.00  0.00    +0.000 A 
ATOM     24  C14 UNL     1     157.922 157.656 167.583  0.00  0.00    +0.000 A 
ATOM     25  O2  UNL     1     157.876 157.225 166.266  0.00  0.00    +0.000 OA
ATOM     26  C15 UNL     1     156.557 156.886 165.894  0.00  0.00    +0.000 C 
ATOM     27  O3  UNL     1     155.936 156.695 167.159  0.00  0.00    +0.000 OA
ATOM     28  C16 UNL     1     158.823 158.288 168.401  0.00  0.00    +0.000 A 
ATOM     29  C17 UNL     1     158.549 158.587 169.726  0.00  0.00    +0.000 A 
ENDBRANCH  20  21
ENDBRANCH  19  20
ENDBRANCH   2  19
TORSDOF 6
ENDMDL
MODEL 2
REMARK VINA RESULT:      -6.6      4.539      7.670
REMARK  Name = ./3D_structures\o21_MMV1782110_3D.pdb
REMARK  6 active torsions:
REMARK  status: ('A' for Active; 'I' for Inactive)
REMARK    1  A    between atoms: C2_3  and  C3_4
REMARK    2  A    between atoms: C6_7  and  C7_8
REMARK    3  A    between atoms: C7_8  and  N1_9
REMARK    4  A    between atoms: C8_10  and  C9_12
REMARK    5  A    between atoms: C9_12  and  C10_13
REMARK    6  A    between atoms: C10_13  and  C11_14
REMARK                            x       y       z     vdW  Elec       q    Type
REMARK                         _______ _______ _______ _____ _____    ______ ____
ROOT
ATOM      1  N1  UNL     1     158.247 159.787 169.594  0.00  0.00    +0.000 N 
ATOM      2  C8  UNL     1     157.720 159.271 170.807  0.00  0.00    +0.000 C 
ATOM      3  O1  UNL     1     158.221 158.305 171.422  0.00  0.00    +0.000 OA
ATOM      4  H5  UNL     1     157.764 160.599 169.148  0.00  0.00    +0.000 HD
ENDROOT
BRANCH   1   5
ATOM      5  C7  UNL     1     159.409 159.215 168.994  0.00  0.00    +0.000 C 
BRANCH   5   9
ATOM      6  C3  UNL     1     158.587 156.544 165.726  0.00  0.00    +0.000 A 
ATOM      7  C4  UNL     1     157.649 156.773 166.700  0.00  0.00    +0.000 A 
ATOM      8  C5  UNL     1     157.937 157.646 167.757  0.00  0.00    +0.000 A 
ATOM      9  C6  UNL     1     159.146 158.299 167.864  0.00  0.00    +0.000 A 
ATOM     10  C18 UNL     1     160.084 158.060 166.872  0.00  0.00    +0.000 A 
ATOM     11  C19 UNL     1     159.799 157.193 165.821  0.00  0.00    +0.000 A 
BRANCH   6  14
ATOM     12  F1  UNL     1     157.745 157.474 163.258  0.00  0.00    +0.000 F 
ATOM     13  C1  UNL     1     157.891 156.143 163.394  0.00  0.00    +0.000 A 
ATOM     14  C2  UNL     1     158.311 155.641 164.615  0.00  0.00    +0.000 A 
ATOM     15  C20 UNL     1     158.463 154.279 164.761  0.00  0.00    +0.000 A 
ATOM     16  C21 UNL     1     158.200 153.426 163.703  0.00  0.00    +0.000 A 
ATOM     17  C22 UNL     1     157.780 153.910 162.477  0.00  0.00    +0.000 A 
ATOM     18  C23 UNL     1     157.636 155.285 162.357  0.00  0.00    +0.000 A 
ENDBRANCH   6  14
ENDBRANCH   5   9
ENDBRANCH   1   5
BRANCH   2  19
ATOM     19  C9  UNL     1     156.502 159.898 171.406  0.00  0.00    +0.000 C 
BRANCH  19  20
ATOM     20  C10 UNL     1     155.293 159.018 171.248  0.00  0.00    +0.000 C 
BRANCH  20  21
ATOM     21  C11 UNL     1     154.867 158.942 169.828  0.00  0.00    +0.000 A 
ATOM     22  C12 UNL     1     154.695 160.097 169.086  0.00  0.00    +0.000 A 
ATOM     23  C13 UNL     1     154.299 160.029 167.767  0.00  0.00    +0.000 A 
ATOM     24  C14 UNL     1     154.065 158.810 167.150  0.00  0.00    +0.000 A 
ATOM     25  O2  UNL     1     153.690 159.116 165.851  0.00  0.00    +0.000 OA
ATOM     26  C15 UNL     1     153.962 160.469 165.554  0.00  0.00    +0.000 C 
ATOM     27  O3  UNL     1     154.069 161.038 166.853  0.00  0.00    +0.000 OA
ATOM     28  C16 UNL     1     154.241 157.679 167.904  0.00  0.00    +0.000 A 
ATOM     29  C17 UNL     1     154.638 157.719 169.232  0.00  0.00    +0.000 A 
ENDBRANCH  20  21
ENDBRANCH  19  20
ENDBRANCH   2  19
TORSDOF 6
ENDMDL
MODEL 3
REMARK VINA RESULT:      -6.6      6.912      9.893
REMARK  Name = ./3D_structures\o21_MMV1782110_3D.pdb
REMARK  6 active torsions:
REMARK  status: ('A' for Active; 'I' for Inactive)
REMARK    1  A    between atoms: C2_3  and  C3_4
REMARK    2  A    between atoms: C6_7  and  C7_8
REMARK    3  A    between atoms: C7_8  and  N1_9
REMARK    4  A    between atoms: C8_10  and  C9_12
REMARK    5  A    between atoms: C9_12  and  C10_13
REMARK    6  A    between atoms: C10_13  and  C11_14
REMARK                            x       y       z     vdW  Elec       q    Type
REMARK                         _______ _______ _______ _____ _____    ______ ____
ROOT
ATOM      1  N1  UNL     1     151.509 162.749 165.116  0.00  0.00    +0.000 N 
ATOM      2  C8  UNL     1     151.897 164.020 164.615  0.00  0.00    +0.000 C 
ATOM      3  O1  UNL     1     152.844 164.187 163.818  0.00  0.00    +0.000 OA
ATOM      4  H5  UNL     1     150.703 162.702 165.780  0.00  0.00    +0.000 HD
ENDROOT
BRANCH   1   5
ATOM      5  C7  UNL     1     152.200 161.562 164.728  0.00  0.00    +0.000 C 
BRANCH   5   9
ATOM      6  C3  UNL     1     154.394 159.653 167.894  0.00  0.00    +0.000 A 
ATOM      7  C4  UNL     1     153.206 160.291 168.147  0.00  0.00    +0.000 A 
ATOM      8  C5  UNL     1     152.507 160.908 167.101  0.00  0.00    +0.000 A 
ATOM      9  C6  UNL     1     152.970 160.902 165.802  0.00  0.00    +0.000 A 
ATOM     10  C18 UNL     1     154.170 160.252 165.561  0.00  0.00    +0.000 A 
ATOM     11  C19 UNL     1     154.866 159.639 166.599  0.00  0.00    +0.000 A 
BRANCH   6  14
ATOM     12  F1  UNL     1     154.142 156.946 168.418  0.00  0.00    +0.000 F 
ATOM     13  C1  UNL     1     154.988 157.645 169.198  0.00  0.00    +0.000 A 
ATOM     14  C2  UNL     1     155.140 159.002 168.965  0.00  0.00    +0.000 A 
ATOM     15  C20 UNL     1     156.004 159.724 169.760  0.00  0.00    +0.000 A 
ATOM     16  C21 UNL     1     156.710 159.102 170.775  0.00  0.00    +0.000 A 
ATOM     17  C22 UNL     1     156.570 157.747 171.021  0.00  0.00    +0.000 A 
ATOM     18  C23 UNL     1     155.694 157.045 170.206  0.00  0.00    +0.000 A 
ENDBRANCH   6  14
ENDBRANCH   5   9
ENDBRANCH   1   5
BRANCH   2  19
ATOM     19  C9  UNL     1     151.149 165.241 165.046  0.00  0.00    +0.000 C 
BRANCH  19  20
ATOM     20  C10 UNL     1     150.621 165.101 166.445  0.00  0.00    +0.000 C 
BRANCH  20  21
ATOM     21  C11 UNL     1     149.139 165.186 166.470  0.00  0.00    +0.000 A 
ATOM     22  C12 UNL     1     148.496 166.327 166.027  0.00  0.00    +0.000 A 
ATOM     23  C13 UNL     1     147.120 166.409 166.050  0.00  0.00    +0.000 A 
ATOM     24  C14 UNL     1     146.346 165.357 166.513  0.00  0.00    +0.000 A 
ATOM     25  O2  UNL     1     145.031 165.779 166.393  0.00  0.00    +0.000 OA
ATOM     26  C15 UNL     1     144.947 166.946 165.603  0.00  0.00    +0.000 C 
ATOM     27  O3  UNL     1     146.281 167.436 165.662  0.00  0.00    +0.000 OA
ATOM     28  C16 UNL     1     147.004 164.235 166.948  0.00  0.00    +0.000 A 
ATOM     29  C17 UNL     1     148.386 164.127 166.936  0.00  0.00    +0.000 A 
ENDBRANCH  20  21
ENDBRANCH  19  20
ENDBRANCH   2  19
TORSDOF 6
ENDMDL
MODEL 4
REMARK VINA RESULT:      -6.6      4.123      8.551
REMARK  Name = ./3D_structures\o21_MMV1782110_3D.pdb
REMARK  6 active torsions:
REMARK  status: ('A' for Active; 'I' for Inactive)
REMARK    1  A    between atoms: C2_3  and  C3_4
REMARK    2  A    between atoms: C6_7  and  C7_8
REMARK    3  A    between atoms: C7_8  and  N1_9
REMARK    4  A    between atoms: C8_10  and  C9_12
REMARK    5  A    between atoms: C9_12  and  C10_13
REMARK    6  A    between atoms: C10_13  and  C11_14
REMARK                            x       y       z     vdW  Elec       q    Type
REMARK                         _______ _______ _______ _____ _____    ______ ____
ROOT
ATOM      1  N1  UNL     1     149.671 157.183 170.381  0.00  0.00    +0.000 N 
ATOM      2  C8  UNL     1     149.396 156.280 171.442  0.00  0.00    +0.000 C 
ATOM      3  O1  UNL     1     149.644 156.528 172.641  0.00  0.00    +0.000 OA
ATOM      4  H5  UNL     1     149.430 156.893 169.407  0.00  0.00    +0.000 HD
ENDROOT
BRANCH   1   5
ATOM      5  C7  UNL     1     150.264 158.456 170.634  0.00  0.00    +0.000 C 
BRANCH   5   9
ATOM      6  C3  UNL     1     154.511 158.712 170.016  0.00  0.00    +0.000 A 
ATOM      7  C4  UNL     1     153.847 159.668 170.742  0.00  0.00    +0.000 A 
ATOM      8  C5  UNL     1     152.463 159.566 170.932  0.00  0.00    +0.000 A 
ATOM      9  C6  UNL     1     151.723 158.527 170.409  0.00  0.00    +0.000 A 
ATOM     10  C18 UNL     1     152.406 157.568 169.678  0.00  0.00    +0.000 A 
ATOM     11  C19 UNL     1     153.782 157.667 169.490  0.00  0.00    +0.000 A 
BRANCH   6  14
ATOM     12  F1  UNL     1     156.319 157.766 171.886  0.00  0.00    +0.000 F 
ATOM     13  C1  UNL     1     156.827 158.310 170.765  0.00  0.00    +0.000 A 
ATOM     14  C2  UNL     1     155.952 158.794 169.806  0.00  0.00    +0.000 A 
ATOM     15  C20 UNL     1     156.464 159.353 168.654  0.00  0.00    +0.000 A 
ATOM     16  C21 UNL     1     157.833 159.428 168.461  0.00  0.00    +0.000 A 
ATOM     17  C22 UNL     1     158.720 158.949 169.407  0.00  0.00    +0.000 A 
ATOM     18  C23 UNL     1     158.178 158.393 170.556  0.00  0.00    +0.000 A 
ENDBRANCH   6  14
ENDBRANCH   5   9
ENDBRANCH   1   5
BRANCH   2  19
ATOM     19  C9  UNL     1     148.774 154.954 171.137  0.00  0.00    +0.000 C 
BRANCH  19  20
ATOM     20  C10 UNL     1     149.815 153.893 170.918  0.00  0.00    +0.000 C 
BRANCH  20  21
ATOM     21  C11 UNL     1     149.424 152.978 169.816  0.00  0.00    +0.000 A 
ATOM     22  C12 UNL     1     148.186 152.361 169.825  0.00  0.00    +0.000 A 
ATOM     23  C13 UNL     1     147.821 151.511 168.802  0.00  0.00    +0.000 A 
ATOM     24  C14 UNL     1     148.677 151.253 167.744  0.00  0.00    +0.000 A 
ATOM     25  O2  UNL     1     147.995 150.371 166.919  0.00  0.00    +0.000 OA
ATOM     26  C15 UNL     1     146.632 150.296 167.280  0.00  0.00    +0.000 C 
ATOM     27  O3  UNL     1     146.654 150.797 168.611  0.00  0.00    +0.000 OA
ATOM     28  C16 UNL     1     149.898 151.875 167.755  0.00  0.00    +0.000 A 
ATOM     29  C17 UNL     1     150.291 152.734 168.770  0.00  0.00    +0.000 A 
ENDBRANCH  20  21
ENDBRANCH  19  20
ENDBRANCH   2  19
TORSDOF 6
ENDMDL
MODEL 5
REMARK VINA RESULT:      -6.6      3.714      7.175
REMARK  Name = ./3D_structures\o21_MMV1782110_3D.pdb
REMARK  6 active torsions:
REMARK  status: ('A' for Active; 'I' for Inactive)
REMARK    1  A    between atoms: C2_3  and  C3_4
REMARK    2  A    between atoms: C6_7  and  C7_8
REMARK    3  A    between atoms: C7_8  and  N1_9
REMARK    4  A    between atoms: C8_10  and  C9_12
REMARK    5  A    between atoms: C9_12  and  C10_13
REMARK    6  A    between atoms: C10_13  and  C11_14
REMARK                            x       y       z     vdW  Elec       q    Type
REMARK                         _______ _______ _______ _____ _____    ______ ____
ROOT
ATOM      1  N1  UNL     1     154.229 160.191 173.676  0.00  0.00    +0.000 N 
ATOM      2  C8  UNL     1     153.333 161.126 173.093  0.00  0.00    +0.000 C 
ATOM      3  O1  UNL     1     153.703 162.172 172.520  0.00  0.00    +0.000 OA
ATOM      4  H5  UNL     1     153.831 159.341 174.135  0.00  0.00    +0.000 HD
ENDROOT
BRANCH   1   5
ATOM      5  C7  UNL     1     155.640 160.403 173.639  0.00  0.00    +0.000 C 
BRANCH   5   9
ATOM      6  C3  UNL     1     157.631 159.040 170.081  0.00  0.00    +0.000 A 
ATOM      7  C4  UNL     1     157.563 160.377 170.380  0.00  0.00    +0.000 A 
ATOM      8  C5  UNL     1     156.909 160.801 171.545  0.00  0.00    +0.000 A 
ATOM      9  C6  UNL     1     156.318 159.915 172.420  0.00  0.00    +0.000 A 
ATOM     10  C18 UNL     1     156.395 158.567 172.106  0.00  0.00    +0.000 A 
ATOM     11  C19 UNL     1     157.045 158.145 170.949  0.00  0.00    +0.000 A 
BRANCH   6  14
ATOM     12  F1  UNL     1     156.266 157.770 168.035  0.00  0.00    +0.000 F 
ATOM     13  C1  UNL     1     157.591 157.942 167.872  0.00  0.00    +0.000 A 
ATOM     14  C2  UNL     1     158.307 158.574 168.875  0.00  0.00    +0.000 A 
ATOM     15  C20 UNL     1     159.665 158.755 168.715  0.00  0.00    +0.000 A 
ATOM     16  C21 UNL     1     160.301 158.311 167.570  0.00  0.00    +0.000 A 
ATOM     17  C22 UNL     1     159.600 157.678 166.558  0.00  0.00    +0.000 A 
ATOM     18  C23 UNL     1     158.236 157.510 166.745  0.00  0.00    +0.000 A 
ENDBRANCH   6  14
ENDBRANCH   5   9
ENDBRANCH   1   5
BRANCH   2  19
ATOM     19  C9  UNL     1     151.861 160.869 173.151  0.00  0.00    +0.000 C 
BRANCH  19  20
ATOM     20  C10 UNL     1     151.482 159.644 172.369  0.00  0.00    +0.000 C 
BRANCH  20  21
ATOM     21  C11 UNL     1     151.894 159.767 170.947  0.00  0.00    +0.000 A 
ATOM     22  C12 UNL     1     151.169 160.559 170.075  0.00  0.00    +0.000 A 
ATOM     23  C13 UNL     1     151.550 160.674 168.755  0.00  0.00    +0.000 A 
ATOM     24  C14 UNL     1     152.661 160.006 168.267  0.00  0.00    +0.000 A 
ATOM     25  O2  UNL     1     152.742 160.346 166.925  0.00  0.00    +0.000 OA
ATOM     26  C15 UNL     1     151.889 161.431 166.629  0.00  0.00    +0.000 C 
ATOM     27  O3  UNL     1     150.982 161.398 167.724  0.00  0.00    +0.000 OA
ATOM     28  C16 UNL     1     153.364 159.226 169.149  0.00  0.00    +0.000 A 
ATOM     29  C17 UNL     1     153.004 159.092 170.481  0.00  0.00    +0.000 A 
ENDBRANCH  20  21
ENDBRANCH  19  20
ENDBRANCH   2  19
TORSDOF 6
ENDMDL
MODEL 6
REMARK VINA RESULT:      -6.5      6.318      9.579
REMARK  Name = ./3D_structures\o21_MMV1782110_3D.pdb
REMARK  6 active torsions:
REMARK  status: ('A' for Active; 'I' for Inactive)
REMARK    1  A    between atoms: C2_3  and  C3_4
REMARK    2  A    between atoms: C6_7  and  C7_8
REMARK    3  A    between atoms: C7_8  and  N1_9
REMARK    4  A    between atoms: C8_10  and  C9_12
REMARK    5  A    between atoms: C9_12  and  C10_13
REMARK    6  A    between atoms: C10_13  and  C11_14
REMARK                            x       y       z     vdW  Elec       q    Type
REMARK                         _______ _______ _______ _____ _____    ______ ____
ROOT
ATOM      1  N1  UNL     1     151.119 161.982 170.270  0.00  0.00    +0.000 N 
ATOM      2  C8  UNL     1     149.968 162.169 169.459  0.00  0.00    +0.000 C 
ATOM      3  O1  UNL     1     149.186 161.248 169.147  0.00  0.00    +0.000 OA
ATOM      4  H5  UNL     1     151.718 162.811 170.482  0.00  0.00    +0.000 HD
ENDROOT
BRANCH   1   5
ATOM      5  C7  UNL     1     151.452 160.694 170.786  0.00  0.00    +0.000 C 
BRANCH   5   9
ATOM      6  C3  UNL     1     154.386 158.550 168.488  0.00  0.00    +0.000 A 
ATOM      7  C4  UNL     1     154.487 159.906 168.667  0.00  0.00    +0.000 A 
ATOM      8  C5  UNL     1     153.520 160.586 169.419  0.00  0.00    +0.000 A 
ATOM      9  C6  UNL     1     152.449 159.939 169.998  0.00  0.00    +0.000 A 
ATOM     10  C18 UNL     1     152.360 158.569 169.811  0.00  0.00    +0.000 A 
ATOM     11  C19 UNL     1     153.321 157.892 169.064  0.00  0.00    +0.000 A 
BRANCH   6  14
ATOM     12  F1  UNL     1     154.128 158.184 165.756  0.00  0.00    +0.000 F 
ATOM     13  C1  UNL     1     155.217 157.656 166.344  0.00  0.00    +0.000 A 
ATOM     14  C2  UNL     1     155.381 157.819 167.710  0.00  0.00    +0.000 A 
ATOM     15  C20 UNL     1     156.494 157.282 168.319  0.00  0.00    +0.000 A 
ATOM     16  C21 UNL     1     157.434 156.589 167.576  0.00  0.00    +0.000 A 
ATOM     17  C22 UNL     1     157.287 156.418 166.211  0.00  0.00    +0.000 A 
ATOM     18  C23 UNL     1     156.158 156.969 165.624  0.00  0.00    +0.000 A 
ENDBRANCH   6  14
ENDBRANCH   5   9
ENDBRANCH   1   5
BRANCH   2  19
ATOM     19  C9  UNL     1     149.652 163.535 168.937  0.00  0.00    +0.000 C 
BRANCH  19  20
ATOM     20  C10 UNL     1     149.406 163.516 167.455  0.00  0.00    +0.000 C 
BRANCH  20  21
ATOM     21  C11 UNL     1     148.067 164.067 167.126  0.00  0.00    +0.000 A 
ATOM     22  C12 UNL     1     147.933 165.380 166.713  0.00  0.00    +0.000 A 
ATOM     23  C13 UNL     1     146.690 165.894 166.408  0.00  0.00    +0.000 A 
ATOM     24  C14 UNL     1     145.548 165.115 166.505  0.00  0.00    +0.000 A 
ATOM     25  O2  UNL     1     144.500 165.942 166.129  0.00  0.00    +0.000 OA
ATOM     26  C15 UNL     1     144.982 167.123 165.525  0.00  0.00    +0.000 C 
ATOM     27  O3  UNL     1     146.328 167.158 165.984  0.00  0.00    +0.000 OA
ATOM     28  C16 UNL     1     145.704 163.817 166.916  0.00  0.00    +0.000 A 
ATOM     29  C17 UNL     1     146.941 163.275 167.229  0.00  0.00    +0.000 A 
ENDBRANCH  20  21
ENDBRANCH  19  20
ENDBRANCH   2  19
TORSDOF 6
ENDMDL
MODEL 7
REMARK VINA RESULT:      -6.5      2.978      5.382
REMARK  Name = ./3D_structures\o21_MMV1782110_3D.pdb
REMARK  6 active torsions:
REMARK  status: ('A' for Active; 'I' for Inactive)
REMARK    1  A    between atoms: C2_3  and  C3_4
REMARK    2  A    between atoms: C6_7  and  C7_8
REMARK    3  A    between atoms: C7_8  and  N1_9
REMARK    4  A    between atoms: C8_10  and  C9_12
REMARK    5  A    between atoms: C9_12  and  C10_13
REMARK    6  A    between atoms: C10_13  and  C11_14
REMARK                            x       y       z     vdW  Elec       q    Type
REMARK                         _______ _______ _______ _____ _____    ______ ____
ROOT
ATOM      1  N1  UNL     1     157.759 157.165 166.061  0.00  0.00    +0.000 N 
ATOM      2  C8  UNL     1     158.389 158.404 165.770  0.00  0.00    +0.000 C 
ATOM      3  O1  UNL     1     157.779 159.402 165.332  0.00  0.00    +0.000 OA
ATOM      4  H5  UNL     1     158.347 156.382 166.426  0.00  0.00    +0.000 HD
ENDROOT
BRANCH   1   5
ATOM      5  C7  UNL     1     156.357 156.988 165.863  0.00  0.00    +0.000 C 
BRANCH   5   9
ATOM      6  C3  UNL     1     153.888 158.496 169.044  0.00  0.00    +0.000 A 
ATOM      7  C4  UNL     1     154.848 157.547 169.288  0.00  0.00    +0.000 A 
ATOM      8  C5  UNL     1     155.642 157.069 168.238  0.00  0.00    +0.000 A 
ATOM      9  C6  UNL     1     155.497 157.518 166.942  0.00  0.00    +0.000 A 
ATOM     10  C18 UNL     1     154.525 158.477 166.709  0.00  0.00    +0.000 A 
ATOM     11  C19 UNL     1     153.736 158.954 167.753  0.00  0.00    +0.000 A 
BRANCH   6  14
ATOM     12  F1  UNL     1     151.429 157.378 169.647  0.00  0.00    +0.000 F 
ATOM     13  C1  UNL     1     151.825 158.426 170.393  0.00  0.00    +0.000 A 
ATOM     14  C2  UNL     1     153.050 159.012 170.121  0.00  0.00    +0.000 A 
ATOM     15  C20 UNL     1     153.462 160.085 170.881  0.00  0.00    +0.000 A 
ATOM     16  C21 UNL     1     152.663 160.570 171.901  0.00  0.00    +0.000 A 
ATOM     17  C22 UNL     1     151.437 159.996 172.188  0.00  0.00    +0.000 A 
ATOM     18  C23 UNL     1     151.047 158.918 171.407  0.00  0.00    +0.000 A 
ENDBRANCH   6  14
ENDBRANCH   5   9
ENDBRANCH   1   5
BRANCH   2  19
ATOM     19  C9  UNL     1     159.860 158.551 165.991  0.00  0.00    +0.000 C 
BRANCH  19  20
ATOM     20  C10 UNL     1     160.251 158.166 167.390  0.00  0.00    +0.000 C 
BRANCH  20  21
ATOM     21  C11 UNL     1     159.433 158.892 168.394  0.00  0.00    +0.000 A 
ATOM     22  C12 UNL     1     158.812 158.204 169.421  0.00  0.00    +0.000 A 
ATOM     23  C13 UNL     1     158.051 158.877 170.354  0.00  0.00    +0.000 A 
ATOM     24  C14 UNL     1     157.889 160.251 170.291  0.00  0.00    +0.000 A 
ATOM     25  O2  UNL     1     157.078 160.580 171.367  0.00  0.00    +0.000 OA
ATOM     26  C15 UNL     1     156.967 159.496 172.264  0.00  0.00    +0.000 C 
ATOM     27  O3  UNL     1     157.352 158.399 171.445  0.00  0.00    +0.000 OA
ATOM     28  C16 UNL     1     158.513 160.913 169.265  0.00  0.00    +0.000 A 
ATOM     29  C17 UNL     1     159.282 160.262 168.314  0.00  0.00    +0.000 A 
ENDBRANCH  20  21
ENDBRANCH  19  20
ENDBRANCH   2  19
TORSDOF 6
ENDMDL
MODEL 8
REMARK VINA RESULT:      -6.5      7.422     10.551
REMARK  Name = ./3D_structures\o21_MMV1782110_3D.pdb
REMARK  6 active torsions:
REMARK  status: ('A' for Active; 'I' for Inactive)
REMARK    1  A    between atoms: C2_3  and  C3_4
REMARK    2  A    between atoms: C6_7  and  C7_8
REMARK    3  A    between atoms: C7_8  and  N1_9
REMARK    4  A    between atoms: C8_10  and  C9_12
REMARK    5  A    between atoms: C9_12  and  C10_13
REMARK    6  A    between atoms: C10_13  and  C11_14
REMARK                            x       y       z     vdW  Elec       q    Type
REMARK                         _______ _______ _______ _____ _____    ______ ____
ROOT
ATOM      1  N1  UNL     1     151.405 163.711 165.095  0.00  0.00    +0.000 N 
ATOM      2  C8  UNL     1     151.202 165.116 165.104  0.00  0.00    +0.000 C 
ATOM      3  O1  UNL     1     151.824 165.908 164.366  0.00  0.00    +0.000 OA
ATOM      4  H5  UNL     1     150.839 163.122 165.746  0.00  0.00    +0.000 HD
ENDROOT
BRANCH   1   5
ATOM      5  C7  UNL     1     152.358 163.111 164.218  0.00  0.00    +0.000 C 
BRANCH   5   9
ATOM      6  C3  UNL     1     154.695 159.926 165.915  0.00  0.00    +0.000 A 
ATOM      7  C4  UNL     1     155.301 161.030 165.371  0.00  0.00    +0.000 A 
ATOM      8  C5  UNL     1     154.521 162.057 164.822  0.00  0.00    +0.000 A 
ATOM      9  C6  UNL     1     153.144 162.005 164.804  0.00  0.00    +0.000 A 
ATOM     10  C18 UNL     1     152.544 160.885 165.358  0.00  0.00    +0.000 A 
ATOM     11  C19 UNL     1     153.318 159.864 165.905  0.00  0.00    +0.000 A 
BRANCH   6  14
ATOM     12  F1  UNL     1     155.574 159.998 168.539  0.00  0.00    +0.000 F 
ATOM     13  C1  UNL     1     155.907 158.916 167.811  0.00  0.00    +0.000 A 
ATOM     14  C2  UNL     1     155.485 158.845 166.494  0.00  0.00    +0.000 A 
ATOM     15  C20 UNL     1     155.822 157.740 165.742  0.00  0.00    +0.000 A 
ATOM     16  C21 UNL     1     156.571 156.717 166.296  0.00  0.00    +0.000 A 
ATOM     17  C22 UNL     1     157.000 156.771 167.611  0.00  0.00    +0.000 A 
ATOM     18  C23 UNL     1     156.647 157.894 168.344  0.00  0.00    +0.000 A 
ENDBRANCH   6  14
ENDBRANCH   5   9
ENDBRANCH   1   5
BRANCH   2  19
ATOM     19  C9  UNL     1     150.194 165.707 166.037  0.00  0.00    +0.000 C 
BRANCH  19  20
ATOM     20  C10 UNL     1     149.563 164.657 166.908  0.00  0.00    +0.000 C 
BRANCH  20  21
ATOM     21  C11 UNL     1     148.083 164.684 166.793  0.00  0.00    +0.000 A 
ATOM     22  C12 UNL     1     147.441 165.797 166.281  0.00  0.00    +0.000 A 
ATOM     23  C13 UNL     1     146.066 165.823 166.174  0.00  0.00    +0.000 A 
ATOM     24  C14 UNL     1     145.294 164.744 166.572  0.00  0.00    +0.000 A 
ATOM     25  O2  UNL     1     143.981 165.113 166.326  0.00  0.00    +0.000 OA
ATOM     26  C15 UNL     1     143.926 166.272 165.521  0.00  0.00    +0.000 C 
ATOM     27  O3  UNL     1     145.229 166.814 165.701  0.00  0.00    +0.000 OA
ATOM     28  C16 UNL     1     145.952 163.651 167.076  0.00  0.00    +0.000 A 
ATOM     29  C17 UNL     1     147.332 163.598 167.196  0.00  0.00    +0.000 A 
ENDBRANCH  20  21
ENDBRANCH  19  20
ENDBRANCH   2  19
TORSDOF 6
ENDMDL
MODEL 9
REMARK VINA RESULT:      -6.5      2.889      4.480
REMARK  Name = ./3D_structures\o21_MMV1782110_3D.pdb
REMARK  6 active torsions:
REMARK  status: ('A' for Active; 'I' for Inactive)
REMARK    1  A    between atoms: C2_3  and  C3_4
REMARK    2  A    between atoms: C6_7  and  C7_8
REMARK    3  A    between atoms: C7_8  and  N1_9
REMARK    4  A    between atoms: C8_10  and  C9_12
REMARK    5  A    between atoms: C9_12  and  C10_13
REMARK    6  A    between atoms: C10_13  and  C11_14
REMARK                            x       y       z     vdW  Elec       q    Type
REMARK                         _______ _______ _______ _____ _____    ______ ____
ROOT
ATOM      1  N1  UNL     1     151.020 157.076 170.939  0.00  0.00    +0.000 N 
ATOM      2  C8  UNL     1     150.747 158.268 170.218  0.00  0.00    +0.000 C 
ATOM      3  O1  UNL     1     149.614 158.787 170.144  0.00  0.00    +0.000 OA
ATOM      4  H5  UNL     1     151.999 156.713 170.948  0.00  0.00    +0.000 HD
ENDROOT
BRANCH   1   5
ATOM      5  C7  UNL     1     149.983 156.386 171.638  0.00  0.00    +0.000 C 
BRANCH   5   9
ATOM      6  C3  UNL     1     148.124 153.185 169.450  0.00  0.00    +0.000 A 
ATOM      7  C4  UNL     1     149.319 152.994 170.097  0.00  0.00    +0.000 A 
ATOM      8  C5  UNL     1     149.909 154.050 170.804  0.00  0.00    +0.000 A 
ATOM      9  C6  UNL     1     149.329 155.299 170.879  0.00  0.00    +0.000 A 
ATOM     10  C18 UNL     1     148.122 155.478 170.222  0.00  0.00    +0.000 A 
ATOM     11  C19 UNL     1     147.535 154.429 169.520  0.00  0.00    +0.000 A 
BRANCH   6  14
ATOM     12  F1  UNL     1     149.202 152.191 167.102  0.00  0.00    +0.000 F 
ATOM     13  C1  UNL     1     148.059 151.630 167.537  0.00  0.00    +0.000 A 
ATOM     14  C2  UNL     1     147.490 152.101 168.709  0.00  0.00    +0.000 A 
ATOM     15  C20 UNL     1     146.320 151.530 169.161  0.00  0.00    +0.000 A 
ATOM     16  C21 UNL     1     145.722 150.501 168.453  0.00  0.00    +0.000 A 
ATOM     17  C22 UNL     1     146.277 150.018 167.281  0.00  0.00    +0.000 A 
ATOM     18  C23 UNL     1     147.455 150.611 166.850  0.00  0.00    +0.000 A 
ENDBRANCH   6  14
ENDBRANCH   5   9
ENDBRANCH   1   5
BRANCH   2  19
ATOM     19  C9  UNL     1     151.859 158.963 169.499  0.00  0.00    +0.000 C 
BRANCH  19  20
ATOM     20  C10 UNL     1     153.123 158.972 170.312  0.00  0.00    +0.000 C 
BRANCH  20  21
ATOM     21  C11 UNL     1     154.238 158.325 169.576  0.00  0.00    +0.000 A 
ATOM     22  C12 UNL     1     154.106 158.016 168.234  0.00  0.00    +0.000 A 
ATOM     23  C13 UNL     1     155.140 157.415 167.549  0.00  0.00    +0.000 A 
ATOM     24  C14 UNL     1     156.334 157.105 168.180  0.00  0.00    +0.000 A 
ATOM     25  O2  UNL     1     157.130 156.521 167.206  0.00  0.00    +0.000 OA
ATOM     26  C15 UNL     1     156.579 156.718 165.921  0.00  0.00    +0.000 C 
ATOM     27  O3  UNL     1     155.224 157.023 166.227  0.00  0.00    +0.000 OA
ATOM     28  C16 UNL     1     156.444 157.419 169.509  0.00  0.00    +0.000 A 
ATOM     29  C17 UNL     1     155.420 158.023 170.222  0.00  0.00    +0.000 A 
ENDBRANCH  20  21
ENDBRANCH  19  20
ENDBRANCH   2  19
TORSDOF 6
ENDMDL
