MODEL 1
REMARK VINA RESULT:      -6.6      0.000      0.000
REMARK  Name = ./3D_structures\o22_MMV1634493_3D.pdb
REMARK  5 active torsions:
REMARK  status: ('A' for Active; 'I' for Inactive)
REMARK    1  A    between atoms: C2_4  and  C4_6
REMARK    2  A    between atoms: C5_7  and  O1_8
REMARK    3  A    between atoms: O1_8  and  C6_9
REMARK    4  A    between atoms: C7_10  and  C13_16
REMARK    5  A    between atoms: C9_12  and  C10_13
REMARK                            x       y       z     vdW  Elec       q    Type
REMARK                         _______ _______ _______ _____ _____    ______ ____
ROOT
ATOM      1  C4  UNL     1     144.989 163.064 165.452  0.00  0.00    +0.000 A 
ATOM      2  C5  UNL     1     144.998 162.169 166.479  0.00  0.00    +0.000 A 
ATOM      3  C14 UNL     1     144.635 160.844 166.259  0.00  0.00    +0.000 A 
ATOM      4  C15 UNL     1     144.268 160.456 165.002  0.00  0.00    +0.000 A 
ATOM      5  C16 UNL     1     144.251 161.346 163.939  0.00  0.00    +0.000 A 
ATOM      6  C17 UNL     1     144.612 162.646 164.172  0.00  0.00    +0.000 A 
ENDROOT
BRANCH   1  10
ATOM      7  S1  UNL     1     145.497 166.975 165.910  0.00  0.00    +0.000 S 
ATOM      8  C1  UNL     1     147.074 165.977 165.929  0.00  0.00    +0.000 A 
ATOM      9  N1  UNL     1     146.607 164.885 165.774  0.00  0.00    +0.000 NA
ATOM     10  C2  UNL     1     145.374 164.507 165.637  0.00  0.00    +0.000 A 
ATOM     11  C3  UNL     1     144.399 165.471 165.663  0.00  0.00    +0.000 A 
ATOM     12  N2  UNL     1     148.324 166.622 166.097  0.00  0.00    +0.000 N 
ATOM     13  C18 UNL     1     149.537 165.846 166.112  0.00  0.00    +0.000 C 
ATOM     14  N3  UNL     1     149.445 164.570 166.103  0.00  0.00    +0.000 NA
ATOM     15  C19 UNL     1     150.645 163.767 166.119  0.00  0.00    +0.000 C 
ATOM     16  C20 UNL     1     151.737 164.380 165.268  0.00  0.00    +0.000 C 
ATOM     17  C21 UNL     1     151.973 165.816 165.569  0.00  0.00    +0.000 C 
ATOM     18  N4  UNL     1     150.811 166.455 166.139  0.00  0.00    +0.000 N 
ATOM     19  H15 UNL     1     148.353 167.648 166.208  0.00  0.00    +0.000 HD
ATOM     20  H22 UNL     1     150.901 167.420 166.596  0.00  0.00    +0.000 HD
ENDBRANCH   1  10
BRANCH   2  21
ATOM     21  O1  UNL     1     145.366 162.561 167.756  0.00  0.00    +0.000 OA
BRANCH  21  22
ATOM     22  C6  UNL     1     146.618 162.655 168.273  0.00  0.00    +0.000 A 
ATOM     23  C7  UNL     1     147.035 163.675 169.085  0.00  0.00    +0.000 A 
ATOM     24  C8  UNL     1     148.333 163.724 169.589  0.00  0.00    +0.000 A 
ATOM     25  C9  UNL     1     149.236 162.732 169.274  0.00  0.00    +0.000 A 
ATOM     26  C10 UNL     1     150.626 162.781 169.812  0.00  0.00    +0.000 C 
ATOM     27  C11 UNL     1     148.828 161.703 168.460  0.00  0.00    +0.000 A 
ATOM     28  C12 UNL     1     147.548 161.674 167.976  0.00  0.00    +0.000 A 
ATOM     29  C13 UNL     1     146.089 164.777 169.422  0.00  0.00    +0.000 C 
ENDBRANCH  21  22
ENDBRANCH   2  21
TORSDOF 3
ENDMDL
MODEL 2
REMARK VINA RESULT:      -6.4     12.574     14.958
REMARK  Name = ./3D_structures\o22_MMV1634493_3D.pdb
REMARK  5 active torsions:
REMARK  status: ('A' for Active; 'I' for Inactive)
REMARK    1  A    between atoms: C2_4  and  C4_6
REMARK    2  A    between atoms: C5_7  and  O1_8
REMARK    3  A    between atoms: O1_8  and  C6_9
REMARK    4  A    between atoms: C7_10  and  C13_16
REMARK    5  A    between atoms: C9_12  and  C10_13
REMARK                            x       y       z     vdW  Elec       q    Type
REMARK                         _______ _______ _______ _____ _____    ______ ____
ROOT
ATOM      1  C4  UNL     1     160.971 157.142 165.191  0.00  0.00    +0.000 A 
ATOM      2  C5  UNL     1     160.785 157.718 166.412  0.00  0.00    +0.000 A 
ATOM      3  C14 UNL     1     161.771 157.627 167.389  0.00  0.00    +0.000 A 
ATOM      4  C15 UNL     1     162.924 156.951 167.108  0.00  0.00    +0.000 A 
ATOM      5  C16 UNL     1     163.140 156.357 165.874  0.00  0.00    +0.000 A 
ATOM      6  C17 UNL     1     162.160 156.456 164.923  0.00  0.00    +0.000 A 
ENDROOT
BRANCH   1  10
ATOM      7  S1  UNL     1     158.358 157.835 162.284  0.00  0.00    +0.000 S 
ATOM      8  C1  UNL     1     158.419 156.065 162.870  0.00  0.00    +0.000 A 
ATOM      9  N1  UNL     1     159.264 156.174 163.712  0.00  0.00    +0.000 NA
ATOM     10  C2  UNL     1     159.936 157.212 164.100  0.00  0.00    +0.000 A 
ATOM     11  C3  UNL     1     159.683 158.411 163.484  0.00  0.00    +0.000 A 
ATOM     12  N2  UNL     1     157.573 155.089 162.285  0.00  0.00    +0.000 N 
ATOM     13  C18 UNL     1     157.627 153.724 162.741  0.00  0.00    +0.000 C 
ATOM     14  N3  UNL     1     158.536 153.397 163.580  0.00  0.00    +0.000 NA
ATOM     15  C19 UNL     1     158.613 152.035 164.054  0.00  0.00    +0.000 C 
ATOM     16  C20 UNL     1     157.238 151.440 164.267  0.00  0.00    +0.000 C 
ATOM     17  C21 UNL     1     156.338 151.617 163.098  0.00  0.00    +0.000 C 
ATOM     18  N4  UNL     1     156.712 152.750 162.285  0.00  0.00    +0.000 N 
ATOM     19  H15 UNL     1     156.925 155.369 161.532  0.00  0.00    +0.000 HD
ATOM     20  H22 UNL     1     156.290 152.871 161.307  0.00  0.00    +0.000 HD
ENDBRANCH   1  10
BRANCH   2  21
ATOM     21  O1  UNL     1     159.614 158.400 166.701  0.00  0.00    +0.000 OA
BRANCH  21  22
ATOM     22  C6  UNL     1     158.819 158.269 167.795  0.00  0.00    +0.000 A 
ATOM     23  C7  UNL     1     157.692 157.492 167.830  0.00  0.00    +0.000 A 
ATOM     24  C8  UNL     1     156.910 157.392 168.979  0.00  0.00    +0.000 A 
ATOM     25  C9  UNL     1     157.261 158.084 170.119  0.00  0.00    +0.000 A 
ATOM     26  C10 UNL     1     156.426 157.978 171.350  0.00  0.00    +0.000 C 
ATOM     27  C11 UNL     1     158.390 158.866 170.093  0.00  0.00    +0.000 A 
ATOM     28  C12 UNL     1     159.145 158.950 168.954  0.00  0.00    +0.000 A 
ATOM     29  C13 UNL     1     157.272 156.752 166.606  0.00  0.00    +0.000 C 
ENDBRANCH  21  22
ENDBRANCH   2  21
TORSDOF 3
ENDMDL
MODEL 3
REMARK VINA RESULT:      -6.2     11.937     14.358
REMARK  Name = ./3D_structures\o22_MMV1634493_3D.pdb
REMARK  5 active torsions:
REMARK  status: ('A' for Active; 'I' for Inactive)
REMARK    1  A    between atoms: C2_4  and  C4_6
REMARK    2  A    between atoms: C5_7  and  O1_8
REMARK    3  A    between atoms: O1_8  and  C6_9
REMARK    4  A    between atoms: C7_10  and  C13_16
REMARK    5  A    between atoms: C9_12  and  C10_13
REMARK                            x       y       z     vdW  Elec       q    Type
REMARK                         _______ _______ _______ _____ _____    ______ ____
ROOT
ATOM      1  C4  UNL     1     158.566 157.904 164.562  0.00  0.00    +0.000 A 
ATOM      2  C5  UNL     1     157.700 157.994 165.611  0.00  0.00    +0.000 A 
ATOM      3  C14 UNL     1     156.623 158.873 165.558  0.00  0.00    +0.000 A 
ATOM      4  C15 UNL     1     156.448 159.644 164.445  0.00  0.00    +0.000 A 
ATOM      5  C16 UNL     1     157.314 159.572 163.363  0.00  0.00    +0.000 A 
ATOM      6  C17 UNL     1     158.369 158.701 163.430  0.00  0.00    +0.000 A 
ENDROOT
BRANCH   1  10
ATOM      7  S1  UNL     1     161.966 155.858 164.666  0.00  0.00    +0.000 S 
ATOM      8  C1  UNL     1     160.444 154.823 164.362  0.00  0.00    +0.000 A 
ATOM      9  N1  UNL     1     159.618 155.691 164.386  0.00  0.00    +0.000 NA
ATOM     10  C2  UNL     1     159.745 156.969 164.569  0.00  0.00    +0.000 A 
ATOM     11  C3  UNL     1     161.005 157.468 164.773  0.00  0.00    +0.000 A 
ATOM     12  N2  UNL     1     160.556 153.421 164.189  0.00  0.00    +0.000 N 
ATOM     13  C18 UNL     1     159.377 152.628 163.957  0.00  0.00    +0.000 C 
ATOM     14  N3  UNL     1     158.233 153.197 164.042  0.00  0.00    +0.000 NA
ATOM     15  C19 UNL     1     157.034 152.425 163.815  0.00  0.00    +0.000 C 
ATOM     16  C20 UNL     1     157.219 151.424 162.695  0.00  0.00    +0.000 C 
ATOM     17  C21 UNL     1     158.443 150.596 162.849  0.00  0.00    +0.000 C 
ATOM     18  N4  UNL     1     159.454 151.253 163.644  0.00  0.00    +0.000 N 
ATOM     19  H15 UNL     1     161.489 152.980 164.233  0.00  0.00    +0.000 HD
ATOM     20  H22 UNL     1     160.292 150.697 164.012  0.00  0.00    +0.000 HD
ENDBRANCH   1  10
BRANCH   2  21
ATOM     21  O1  UNL     1     157.877 157.216 166.743  0.00  0.00    +0.000 OA
BRANCH  21  22
ATOM     22  C6  UNL     1     157.585 157.536 168.031  0.00  0.00    +0.000 A 
ATOM     23  C7  UNL     1     158.414 158.263 168.843  0.00  0.00    +0.000 A 
ATOM     24  C8  UNL     1     158.068 158.564 170.158  0.00  0.00    +0.000 A 
ATOM     25  C9  UNL     1     156.866 158.129 170.675  0.00  0.00    +0.000 A 
ATOM     26  C10 UNL     1     156.492 158.451 172.082  0.00  0.00    +0.000 C 
ATOM     27  C11 UNL     1     156.027 157.400 169.868  0.00  0.00    +0.000 A 
ATOM     28  C12 UNL     1     156.387 157.114 168.579  0.00  0.00    +0.000 A 
ATOM     29  C13 UNL     1     159.732 158.725 168.321  0.00  0.00    +0.000 C 
ENDBRANCH  21  22
ENDBRANCH   2  21
TORSDOF 3
ENDMDL
MODEL 4
REMARK VINA RESULT:      -6.2      7.555     10.999
REMARK  Name = ./3D_structures\o22_MMV1634493_3D.pdb
REMARK  5 active torsions:
REMARK  status: ('A' for Active; 'I' for Inactive)
REMARK    1  A    between atoms: C2_4  and  C4_6
REMARK    2  A    between atoms: C5_7  and  O1_8
REMARK    3  A    between atoms: O1_8  and  C6_9
REMARK    4  A    between atoms: C7_10  and  C13_16
REMARK    5  A    between atoms: C9_12  and  C10_13
REMARK                            x       y       z     vdW  Elec       q    Type
REMARK                         _______ _______ _______ _____ _____    ______ ____
ROOT
ATOM      1  C4  UNL     1     154.184 159.315 170.854  0.00  0.00    +0.000 A 
ATOM      2  C5  UNL     1     155.057 158.438 170.282  0.00  0.00    +0.000 A 
ATOM      3  C14 UNL     1     156.313 158.230 170.843  0.00  0.00    +0.000 A 
ATOM      4  C15 UNL     1     156.659 158.917 171.971  0.00  0.00    +0.000 A 
ATOM      5  C16 UNL     1     155.790 159.814 172.575  0.00  0.00    +0.000 A 
ATOM      6  C17 UNL     1     154.557 160.007 172.011  0.00  0.00    +0.000 A 
ENDROOT
BRANCH   1  10
ATOM      7  S1  UNL     1     150.760 160.457 169.204  0.00  0.00    +0.000 S 
ATOM      8  C1  UNL     1     150.717 158.769 169.996  0.00  0.00    +0.000 A 
ATOM      9  N1  UNL     1     151.848 158.716 170.387  0.00  0.00    +0.000 NA
ATOM     10  C2  UNL     1     152.815 159.574 170.288  0.00  0.00    +0.000 A 
ATOM     11  C3  UNL     1     152.561 160.757 169.642  0.00  0.00    +0.000 A 
ATOM     12  N2  UNL     1     149.525 158.002 169.978  0.00  0.00    +0.000 N 
ATOM     13  C18 UNL     1     149.500 156.698 170.590  0.00  0.00    +0.000 C 
ATOM     14  N3  UNL     1     150.599 156.207 171.025  0.00  0.00    +0.000 NA
ATOM     15  C19 UNL     1     150.602 154.901 171.642  0.00  0.00    +0.000 C 
ATOM     16  C20 UNL     1     149.371 154.685 172.496  0.00  0.00    +0.000 C 
ATOM     17  C21 UNL     1     148.106 155.008 171.786  0.00  0.00    +0.000 C 
ATOM     18  N4  UNL     1     148.304 155.958 170.717  0.00  0.00    +0.000 N 
ATOM     19  H15 UNL     1     148.683 158.388 169.523  0.00  0.00    +0.000 HD
ATOM     20  H22 UNL     1     147.530 156.120 169.993  0.00  0.00    +0.000 HD
ENDBRANCH   1  10
BRANCH   2  21
ATOM     21  O1  UNL     1     154.710 157.742 169.134  0.00  0.00    +0.000 OA
BRANCH  21  22
ATOM     22  C6  UNL     1     155.439 157.588 167.999  0.00  0.00    +0.000 A 
ATOM     23  C7  UNL     1     155.138 158.196 166.809  0.00  0.00    +0.000 A 
ATOM     24  C8  UNL     1     155.919 158.004 165.672  0.00  0.00    +0.000 A 
ATOM     25  C9  UNL     1     157.028 157.185 165.723  0.00  0.00    +0.000 A 
ATOM     26  C10 UNL     1     157.866 156.978 164.508  0.00  0.00    +0.000 C 
ATOM     27  C11 UNL     1     157.339 156.571 166.912  0.00  0.00    +0.000 A 
ATOM     28  C12 UNL     1     156.558 156.773 168.018  0.00  0.00    +0.000 A 
ATOM     29  C13 UNL     1     153.931 159.066 166.716  0.00  0.00    +0.000 C 
ENDBRANCH  21  22
ENDBRANCH   2  21
TORSDOF 3
ENDMDL
MODEL 5
REMARK VINA RESULT:      -6.1      3.793      6.122
REMARK  Name = ./3D_structures\o22_MMV1634493_3D.pdb
REMARK  5 active torsions:
REMARK  status: ('A' for Active; 'I' for Inactive)
REMARK    1  A    between atoms: C2_4  and  C4_6
REMARK    2  A    between atoms: C5_7  and  O1_8
REMARK    3  A    between atoms: O1_8  and  C6_9
REMARK    4  A    between atoms: C7_10  and  C13_16
REMARK    5  A    between atoms: C9_12  and  C10_13
REMARK                            x       y       z     vdW  Elec       q    Type
REMARK                         _______ _______ _______ _____ _____    ______ ____
ROOT
ATOM      1  C4  UNL     1     148.275 165.148 169.335  0.00  0.00    +0.000 A 
ATOM      2  C5  UNL     1     148.436 165.171 167.982  0.00  0.00    +0.000 A 
ATOM      3  C14 UNL     1     147.328 165.107 167.142  0.00  0.00    +0.000 A 
ATOM      4  C15 UNL     1     146.081 165.020 167.693  0.00  0.00    +0.000 A 
ATOM      5  C16 UNL     1     145.890 164.995 169.066  0.00  0.00    +0.000 A 
ATOM      6  C17 UNL     1     146.990 165.059 169.879  0.00  0.00    +0.000 A 
ENDROOT
BRANCH   1  10
ATOM      7  S1  UNL     1     151.226 165.828 171.902  0.00  0.00    +0.000 S 
ATOM      8  C1  UNL     1     151.125 164.072 171.280  0.00  0.00    +0.000 A 
ATOM      9  N1  UNL     1     150.176 164.183 170.557  0.00  0.00    +0.000 NA
ATOM     10  C2  UNL     1     149.440 165.215 170.286  0.00  0.00    +0.000 A 
ATOM     11  C3  UNL     1     149.747 166.403 170.898  0.00  0.00    +0.000 A 
ATOM     12  N2  UNL     1     152.057 163.102 171.726  0.00  0.00    +0.000 N 
ATOM     13  C18 UNL     1     151.971 161.747 171.244  0.00  0.00    +0.000 C 
ATOM     14  N3  UNL     1     150.968 161.420 170.519  0.00  0.00    +0.000 NA
ATOM     15  C19 UNL     1     150.857 160.069 170.022  0.00  0.00    +0.000 C 
ATOM     16  C20 UNL     1     152.205 159.511 169.618  0.00  0.00    +0.000 C 
ATOM     17  C21 UNL     1     153.244 159.679 170.668  0.00  0.00    +0.000 C 
ATOM     18  N4  UNL     1     152.956 160.784 171.552  0.00  0.00    +0.000 N 
ATOM     19  H15 UNL     1     152.791 163.378 172.397  0.00  0.00    +0.000 HD
ATOM     20  H22 UNL     1     153.497 160.890 172.471  0.00  0.00    +0.000 HD
ENDBRANCH   1  10
BRANCH   2  21
ATOM     21  O1  UNL     1     149.700 165.256 167.421  0.00  0.00    +0.000 OA
BRANCH  21  22
ATOM     22  C6  UNL     1     150.406 164.275 166.801  0.00  0.00    +0.000 A 
ATOM     23  C7  UNL     1     151.143 164.467 165.663  0.00  0.00    +0.000 A 
ATOM     24  C8  UNL     1     151.849 163.426 165.066  0.00  0.00    +0.000 A 
ATOM     25  C9  UNL     1     151.820 162.163 165.617  0.00  0.00    +0.000 A 
ATOM     26  C10 UNL     1     152.576 161.046 164.980  0.00  0.00    +0.000 C 
ATOM     27  C11 UNL     1     151.084 161.959 166.759  0.00  0.00    +0.000 A 
ATOM     28  C12 UNL     1     150.397 162.996 167.330  0.00  0.00    +0.000 A 
ATOM     29  C13 UNL     1     151.173 165.816 165.028  0.00  0.00    +0.000 C 
ENDBRANCH  21  22
ENDBRANCH   2  21
TORSDOF 3
ENDMDL
MODEL 6
REMARK VINA RESULT:      -6.1      3.569      6.612
REMARK  Name = ./3D_structures\o22_MMV1634493_3D.pdb
REMARK  5 active torsions:
REMARK  status: ('A' for Active; 'I' for Inactive)
REMARK    1  A    between atoms: C2_4  and  C4_6
REMARK    2  A    between atoms: C5_7  and  O1_8
REMARK    3  A    between atoms: O1_8  and  C6_9
REMARK    4  A    between atoms: C7_10  and  C13_16
REMARK    5  A    between atoms: C9_12  and  C10_13
REMARK                            x       y       z     vdW  Elec       q    Type
REMARK                         _______ _______ _______ _____ _____    ______ ____
ROOT
ATOM      1  C4  UNL     1     151.919 163.936 166.143  0.00  0.00    +0.000 A 
ATOM      2  C5  UNL     1     152.035 162.694 165.596  0.00  0.00    +0.000 A 
ATOM      3  C14 UNL     1     152.585 162.534 164.327  0.00  0.00    +0.000 A 
ATOM      4  C15 UNL     1     153.004 163.637 163.641  0.00  0.00    +0.000 A 
ATOM      5  C16 UNL     1     152.899 164.913 164.175  0.00  0.00    +0.000 A 
ATOM      6  C17 UNL     1     152.356 165.054 165.424  0.00  0.00    +0.000 A 
ENDROOT
BRANCH   1  10
ATOM      7  S1  UNL     1     150.864 164.535 169.923  0.00  0.00    +0.000 S 
ATOM      8  C1  UNL     1     149.438 164.430 168.723  0.00  0.00    +0.000 A 
ATOM      9  N1  UNL     1     150.056 164.254 167.712  0.00  0.00    +0.000 NA
ATOM     10  C2  UNL     1     151.333 164.163 167.510  0.00  0.00    +0.000 A 
ATOM     11  C3  UNL     1     152.166 164.280 168.594  0.00  0.00    +0.000 A 
ATOM     12  N2  UNL     1     148.105 164.562 169.186  0.00  0.00    +0.000 N 
ATOM     13  C18 UNL     1     147.009 164.482 168.254  0.00  0.00    +0.000 C 
ATOM     14  N3  UNL     1     147.275 164.424 167.004  0.00  0.00    +0.000 NA
ATOM     15  C19 UNL     1     146.196 164.344 166.048  0.00  0.00    +0.000 C 
ATOM     16  C20 UNL     1     145.070 163.465 166.550  0.00  0.00    +0.000 C 
ATOM     17  C21 UNL     1     144.627 163.815 167.925  0.00  0.00    +0.000 C 
ATOM     18  N4  UNL     1     145.665 164.470 168.686  0.00  0.00    +0.000 N 
ATOM     19  H15 UNL     1     147.932 164.716 170.192  0.00  0.00    +0.000 HD
ATOM     20  H22 UNL     1     145.424 164.964 169.606  0.00  0.00    +0.000 HD
ENDBRANCH   1  10
BRANCH   2  21
ATOM     21  O1  UNL     1     151.607 161.573 166.288  0.00  0.00    +0.000 OA
BRANCH  21  22
ATOM     22  C6  UNL     1     152.368 160.600 166.855  0.00  0.00    +0.000 A 
ATOM     23  C7  UNL     1     152.210 160.160 168.142  0.00  0.00    +0.000 A 
ATOM     24  C8  UNL     1     153.019 159.159 168.676  0.00  0.00    +0.000 A 
ATOM     25  C9  UNL     1     154.008 158.584 167.907  0.00  0.00    +0.000 A 
ATOM     26  C10 UNL     1     154.875 157.513 168.476  0.00  0.00    +0.000 C 
ATOM     27  C11 UNL     1     154.175 159.019 166.615  0.00  0.00    +0.000 A 
ATOM     28  C12 UNL     1     153.370 160.004 166.109  0.00  0.00    +0.000 A 
ATOM     29  C13 UNL     1     151.166 160.781 169.006  0.00  0.00    +0.000 C 
ENDBRANCH  21  22
ENDBRANCH   2  21
TORSDOF 3
ENDMDL
MODEL 7
REMARK VINA RESULT:      -6.0      8.219     10.831
REMARK  Name = ./3D_structures\o22_MMV1634493_3D.pdb
REMARK  5 active torsions:
REMARK  status: ('A' for Active; 'I' for Inactive)
REMARK    1  A    between atoms: C2_4  and  C4_6
REMARK    2  A    between atoms: C5_7  and  O1_8
REMARK    3  A    between atoms: O1_8  and  C6_9
REMARK    4  A    between atoms: C7_10  and  C13_16
REMARK    5  A    between atoms: C9_12  and  C10_13
REMARK                            x       y       z     vdW  Elec       q    Type
REMARK                         _______ _______ _______ _____ _____    ______ ____
ROOT
ATOM      1  C4  UNL     1     154.681 158.479 169.102  0.00  0.00    +0.000 A 
ATOM      2  C5  UNL     1     155.847 158.221 169.759  0.00  0.00    +0.000 A 
ATOM      3  C14 UNL     1     156.855 157.490 169.138  0.00  0.00    +0.000 A 
ATOM      4  C15 UNL     1     156.659 157.035 167.865  0.00  0.00    +0.000 A 
ATOM      5  C16 UNL     1     155.482 157.284 167.175  0.00  0.00    +0.000 A 
ATOM      6  C17 UNL     1     154.500 158.005 167.799  0.00  0.00    +0.000 A 
ENDROOT
BRANCH   1  10
ATOM      7  S1  UNL     1     151.992 160.979 170.612  0.00  0.00    +0.000 S 
ATOM      8  C1  UNL     1     151.577 159.171 170.819  0.00  0.00    +0.000 A 
ATOM      9  N1  UNL     1     152.538 158.695 170.285  0.00  0.00    +0.000 NA
ATOM     10  C2  UNL     1     153.561 159.266 169.728  0.00  0.00    +0.000 A 
ATOM     11  C3  UNL     1     153.607 160.636 169.719  0.00  0.00    +0.000 A 
ATOM     12  N2  UNL     1     150.381 158.783 171.473  0.00  0.00    +0.000 N 
ATOM     13  C18 UNL     1     150.066 157.386 171.627  0.00  0.00    +0.000 C 
ATOM     14  N3  UNL     1     150.817 156.524 171.050  0.00  0.00    +0.000 NA
ATOM     15  C19 UNL     1     150.524 155.117 171.187  0.00  0.00    +0.000 C 
ATOM     16  C20 UNL     1     150.043 154.781 172.583  0.00  0.00    +0.000 C 
ATOM     17  C21 UNL     1     148.947 155.669 173.051  0.00  0.00    +0.000 C 
ATOM     18  N4  UNL     1     148.959 156.952 172.388  0.00  0.00    +0.000 N 
ATOM     19  H15 UNL     1     149.743 159.510 171.833  0.00  0.00    +0.000 HD
ATOM     20  H22 UNL     1     148.113 157.605 172.469  0.00  0.00    +0.000 HD
ENDBRANCH   1  10
BRANCH   2  21
ATOM     21  O1  UNL     1     156.048 158.679 171.051  0.00  0.00    +0.000 OA
BRANCH  21  22
ATOM     22  C6  UNL     1     156.506 159.895 171.445  0.00  0.00    +0.000 A 
ATOM     23  C7  UNL     1     156.238 160.454 172.666  0.00  0.00    +0.000 A 
ATOM     24  C8  UNL     1     156.733 161.707 173.020  0.00  0.00    +0.000 A 
ATOM     25  C9  UNL     1     157.514 162.419 172.135  0.00  0.00    +0.000 A 
ATOM     26  C10 UNL     1     158.046 163.760 172.512  0.00  0.00    +0.000 C 
ATOM     27  C11 UNL     1     157.789 161.867 170.908  0.00  0.00    +0.000 A 
ATOM     28  C12 UNL     1     157.293 160.634 170.579  0.00  0.00    +0.000 A 
ATOM     29  C13 UNL     1     155.374 159.719 173.634  0.00  0.00    +0.000 C 
ENDBRANCH  21  22
ENDBRANCH   2  21
TORSDOF 3
ENDMDL
MODEL 8
REMARK VINA RESULT:      -5.9      6.699      9.866
REMARK  Name = ./3D_structures\o22_MMV1634493_3D.pdb
REMARK  5 active torsions:
REMARK  status: ('A' for Active; 'I' for Inactive)
REMARK    1  A    between atoms: C2_4  and  C4_6
REMARK    2  A    between atoms: C5_7  and  O1_8
REMARK    3  A    between atoms: O1_8  and  C6_9
REMARK    4  A    between atoms: C7_10  and  C13_16
REMARK    5  A    between atoms: C9_12  and  C10_13
REMARK                            x       y       z     vdW  Elec       q    Type
REMARK                         _______ _______ _______ _____ _____    ______ ____
ROOT
ATOM      1  C4  UNL     1     154.437 159.284 170.693  0.00  0.00    +0.000 A 
ATOM      2  C5  UNL     1     155.302 158.414 170.102  0.00  0.00    +0.000 A 
ATOM      3  C14 UNL     1     156.570 158.210 170.638  0.00  0.00    +0.000 A 
ATOM      4  C15 UNL     1     156.934 158.896 171.761  0.00  0.00    +0.000 A 
ATOM      5  C16 UNL     1     156.073 159.787 172.384  0.00  0.00    +0.000 A 
ATOM      6  C17 UNL     1     154.828 159.975 171.844  0.00  0.00    +0.000 A 
ENDROOT
BRANCH   1  10
ATOM      7  S1  UNL     1     150.622 159.645 169.654  0.00  0.00    +0.000 S 
ATOM      8  C1  UNL     1     151.816 160.596 168.580  0.00  0.00    +0.000 A 
ATOM      9  N1  UNL     1     152.839 160.296 169.125  0.00  0.00    +0.000 NA
ATOM     10  C2  UNL     1     153.055 159.539 170.155  0.00  0.00    +0.000 A 
ATOM     11  C3  UNL     1     151.973 158.955 170.762  0.00  0.00    +0.000 A 
ATOM     12  N2  UNL     1     151.337 161.369 167.492  0.00  0.00    +0.000 N 
ATOM     13  C18 UNL     1     152.263 162.102 166.669  0.00  0.00    +0.000 C 
ATOM     14  N3  UNL     1     153.493 162.142 167.021  0.00  0.00    +0.000 NA
ATOM     15  C19 UNL     1     154.444 162.871 166.213  0.00  0.00    +0.000 C 
ATOM     16  C20 UNL     1     154.159 162.708 164.735  0.00  0.00    +0.000 C 
ATOM     17  C21 UNL     1     152.742 162.978 164.381  0.00  0.00    +0.000 C 
ATOM     18  N4  UNL     1     151.849 162.772 165.497  0.00  0.00    +0.000 N 
ATOM     19  H15 UNL     1     150.323 161.399 167.302  0.00  0.00    +0.000 HD
ATOM     20  H22 UNL     1     150.839 163.129 165.449  0.00  0.00    +0.000 HD
ENDBRANCH   1  10
BRANCH   2  21
ATOM     21  O1  UNL     1     154.937 157.720 168.959  0.00  0.00    +0.000 OA
BRANCH  21  22
ATOM     22  C6  UNL     1     155.689 157.473 167.856  0.00  0.00    +0.000 A 
ATOM     23  C7  UNL     1     155.374 157.923 166.601  0.00  0.00    +0.000 A 
ATOM     24  C8  UNL     1     156.181 157.640 165.501  0.00  0.00    +0.000 A 
ATOM     25  C9  UNL     1     157.328 156.891 165.656  0.00  0.00    +0.000 A 
ATOM     26  C10 UNL     1     158.193 156.588 164.481  0.00  0.00    +0.000 C 
ATOM     27  C11 UNL     1     157.652 156.435 166.911  0.00  0.00    +0.000 A 
ATOM     28  C12 UNL     1     156.846 156.724 167.979  0.00  0.00    +0.000 A 
ATOM     29  C13 UNL     1     154.127 158.713 166.397  0.00  0.00    +0.000 C 
ENDBRANCH  21  22
ENDBRANCH   2  21
TORSDOF 3
ENDMDL
MODEL 9
REMARK VINA RESULT:      -5.9     19.612     21.961
REMARK  Name = ./3D_structures\o22_MMV1634493_3D.pdb
REMARK  5 active torsions:
REMARK  status: ('A' for Active; 'I' for Inactive)
REMARK    1  A    between atoms: C2_4  and  C4_6
REMARK    2  A    between atoms: C5_7  and  O1_8
REMARK    3  A    between atoms: O1_8  and  C6_9
REMARK    4  A    between atoms: C7_10  and  C13_16
REMARK    5  A    between atoms: C9_12  and  C10_13
REMARK                            x       y       z     vdW  Elec       q    Type
REMARK                         _______ _______ _______ _____ _____    ______ ____
ROOT
ATOM      1  C4  UNL     1     162.320 148.237 167.456  0.00  0.00    +0.000 A 
ATOM      2  C5  UNL     1     161.890 148.258 168.749  0.00  0.00    +0.000 A 
ATOM      3  C14 UNL     1     162.375 149.214 169.635  0.00  0.00    +0.000 A 
ATOM      4  C15 UNL     1     163.288 150.129 169.192  0.00  0.00    +0.000 A 
ATOM      5  C16 UNL     1     163.741 150.130 167.881  0.00  0.00    +0.000 A 
ATOM      6  C17 UNL     1     163.253 149.183 167.021  0.00  0.00    +0.000 A 
ENDROOT
BRANCH   1  10
ATOM      7  S1  UNL     1     161.421 145.276 164.969  0.00  0.00    +0.000 S 
ATOM      8  C1  UNL     1     160.246 146.725 164.912  0.00  0.00    +0.000 A 
ATOM      9  N1  UNL     1     160.765 147.420 165.738  0.00  0.00    +0.000 NA
ATOM     10  C2  UNL     1     161.825 147.225 166.458  0.00  0.00    +0.000 A 
ATOM     11  C3  UNL     1     162.509 146.048 166.291  0.00  0.00    +0.000 A 
ATOM     12  N2  UNL     1     159.137 146.711 164.029  0.00  0.00    +0.000 N 
ATOM     13  C18 UNL     1     158.233 147.831 163.992  0.00  0.00    +0.000 C 
ATOM     14  N3  UNL     1     158.381 148.763 164.857  0.00  0.00    +0.000 NA
ATOM     15  C19 UNL     1     157.488 149.898 164.843  0.00  0.00    +0.000 C 
ATOM     16  C20 UNL     1     157.148 150.323 163.431  0.00  0.00    +0.000 C 
ATOM     17  C21 UNL     1     156.696 149.195 162.575  0.00  0.00    +0.000 C 
ATOM     18  N4  UNL     1     157.198 147.922 163.036  0.00  0.00    +0.000 N 
ATOM     19  H15 UNL     1     158.988 145.892 163.419  0.00  0.00    +0.000 HD
ATOM     20  H22 UNL     1     156.786 147.011 162.649  0.00  0.00    +0.000 HD
ENDBRANCH   1  10
BRANCH   2  21
ATOM     21  O1  UNL     1     160.966 147.329 169.203  0.00  0.00    +0.000 OA
BRANCH  21  22
ATOM     22  C6  UNL     1     161.145 146.365 170.143  0.00  0.00    +0.000 A 
ATOM     23  C7  UNL     1     160.864 145.040 169.940  0.00  0.00    +0.000 A 
ATOM     24  C8  UNL     1     161.064 144.090 170.940  0.00  0.00    +0.000 A 
ATOM     25  C9  UNL     1     161.556 144.472 172.170  0.00  0.00    +0.000 A 
ATOM     26  C10 UNL     1     161.772 143.458 173.241  0.00  0.00    +0.000 C 
ATOM     27  C11 UNL     1     161.841 145.799 172.383  0.00  0.00    +0.000 A 
ATOM     28  C12 UNL     1     161.636 146.716 171.388  0.00  0.00    +0.000 A 
ATOM     29  C13 UNL     1     160.307 144.601 168.629  0.00  0.00    +0.000 C 
ENDBRANCH  21  22
ENDBRANCH   2  21
TORSDOF 3
ENDMDL
