MODEL 1
REMARK VINA RESULT:      -7.9      0.000      0.000
REMARK  Name = ./3D_structures\o25_MMV1578560_3D.pdb
REMARK  6 active torsions:
REMARK  status: ('A' for Active; 'I' for Inactive)
REMARK    1  A    between atoms: C1_2  and  C2_5
REMARK    2  A    between atoms: N2_7  and  C3_8
REMARK    3  A    between atoms: C6_11  and  N3_12
REMARK    4  A    between atoms: C7_13  and  C8_15
REMARK    5  A    between atoms: C8_15  and  N4_16
REMARK    6  A    between atoms: C11_19  and  C13_21
REMARK                            x       y       z     vdW  Elec       q    Type
REMARK                         _______ _______ _______ _____ _____    ______ ____
ROOT
ATOM      1  C2  UNL     1     157.706 155.772 165.238  0.00  0.00    +0.000 A 
ATOM      2  N1  UNL     1     157.791 155.939 166.553  0.00  0.00    +0.000 NA
ATOM      3  N2  UNL     1     157.014 156.996 166.968  0.00  0.00    +0.000 N 
ATOM      4  C11 UNL     1     156.422 157.524 165.934  0.00  0.00    +0.000 A 
ATOM      5  C12 UNL     1     156.847 156.757 164.816  0.00  0.00    +0.000 A 
ENDROOT
BRANCH   4   6
ATOM      6  C13 UNL     1     155.605 158.737 165.784  0.00  0.00    +0.000 A 
ATOM      7  C14 UNL     1     156.152 159.802 165.114  0.00  0.00    +0.000 A 
ATOM      8  C15 UNL     1     155.495 160.965 164.835  0.00  0.00    +0.000 A 
ATOM      9  C16 UNL     1     156.197 161.917 164.153  0.00  0.00    +0.000 A 
ATOM     10  C17 UNL     1     155.588 163.082 163.855  0.00  0.00    +0.000 A 
ATOM     11  C18 UNL     1     154.274 163.288 164.249  0.00  0.00    +0.000 A 
ATOM     12  C19 UNL     1     153.554 162.301 164.950  0.00  0.00    +0.000 A 
ATOM     13  C20 UNL     1     154.172 161.130 165.247  0.00  0.00    +0.000 A 
ATOM     14  C21 UNL     1     153.602 160.068 165.925  0.00  0.00    +0.000 A 
ATOM     15  C22 UNL     1     154.308 158.880 166.197  0.00  0.00    +0.000 A 
ATOM     16  C23 UNL     1     152.281 162.508 165.374  0.00  0.00    +0.000 A 
ATOM     17  C24 UNL     1     151.659 163.710 165.118  0.00  0.00    +0.000 A 
ATOM     18  C25 UNL     1     152.373 164.685 164.418  0.00  0.00    +0.000 A 
ATOM     19  C26 UNL     1     153.653 164.467 163.995  0.00  0.00    +0.000 A 
ENDBRANCH   4   6
BRANCH   3  20
ATOM     20  C3  UNL     1     157.055 157.257 168.364  0.00  0.00    +0.000 A 
ATOM     21  C4  UNL     1     157.917 158.157 168.964  0.00  0.00    +0.000 A 
ATOM     22  C5  UNL     1     157.743 158.638 170.220  0.00  0.00    +0.000 A 
ATOM     23  C6  UNL     1     156.646 158.241 170.995  0.00  0.00    +0.000 A 
ATOM     24  C9  UNL     1     155.781 157.333 170.439  0.00  0.00    +0.000 A 
ATOM     25  C10 UNL     1     155.966 156.853 169.167  0.00  0.00    +0.000 A 
BRANCH  23  26
ATOM     26  N3  UNL     1     156.359 158.988 172.198  0.00  0.00    +0.000 N 
ATOM     27  C7  UNL     1     155.371 160.000 171.965  0.00  0.00    +0.000 C 
ATOM     28  O1  UNL     1     154.864 160.072 170.767  0.00  0.00    +0.000 OA
ATOM     29  H3  UNL     1     156.762 158.866 173.112  0.00  0.00    +0.000 HD
BRANCH  27  30
ATOM     30  C8  UNL     1     154.867 160.950 172.926  0.00  0.00    +0.000 C 
BRANCH  30  31
ATOM     31  N4  UNL     1     153.861 160.523 173.830  0.00  0.00    +0.000 NA
ATOM     32  H6  UNL     1     154.036 159.646 174.347  0.00  0.00    +0.000 HD
ATOM     33  H7  UNL     1     153.685 161.307 174.537  0.00  0.00    +0.000 HD
ENDBRANCH  30  31
ENDBRANCH  27  30
ENDBRANCH  23  26
ENDBRANCH   3  20
BRANCH   1  35
ATOM     34  F1  UNL     1     159.485 155.345 163.735  0.00  0.00    +0.000 F 
ATOM     35  C1  UNL     1     158.450 154.760 164.416  0.00  0.00    +0.000 C 
ATOM     36  F2  UNL     1     157.575 154.171 163.532  0.00  0.00    +0.000 F 
ATOM     37  F3  UNL     1     158.895 153.785 165.299  0.00  0.00    +0.000 F 
ENDBRANCH   1  35
TORSDOF 6
ENDMDL
MODEL 2
REMARK VINA RESULT:      -7.9      5.701      8.448
REMARK  Name = ./3D_structures\o25_MMV1578560_3D.pdb
REMARK  6 active torsions:
REMARK  status: ('A' for Active; 'I' for Inactive)
REMARK    1  A    between atoms: C1_2  and  C2_5
REMARK    2  A    between atoms: N2_7  and  C3_8
REMARK    3  A    between atoms: C6_11  and  N3_12
REMARK    4  A    between atoms: C7_13  and  C8_15
REMARK    5  A    between atoms: C8_15  and  N4_16
REMARK    6  A    between atoms: C11_19  and  C13_21
REMARK                            x       y       z     vdW  Elec       q    Type
REMARK                         _______ _______ _______ _____ _____    ______ ____
ROOT
ATOM      1  C2  UNL     1     158.779 157.142 161.471  0.00  0.00    +0.000 A 
ATOM      2  N1  UNL     1     158.603 155.830 161.584  0.00  0.00    +0.000 NA
ATOM      3  N2  UNL     1     158.143 155.500 162.838  0.00  0.00    +0.000 N 
ATOM      4  C11 UNL     1     158.018 156.586 163.548  0.00  0.00    +0.000 A 
ATOM      5  C12 UNL     1     158.416 157.650 162.695  0.00  0.00    +0.000 A 
ENDROOT
BRANCH   4   6
ATOM      6  C13 UNL     1     157.705 156.799 164.968  0.00  0.00    +0.000 A 
ATOM      7  C14 UNL     1     158.645 157.426 165.747  0.00  0.00    +0.000 A 
ATOM      8  C15 UNL     1     158.472 157.756 167.059  0.00  0.00    +0.000 A 
ATOM      9  C16 UNL     1     159.516 158.383 167.676  0.00  0.00    +0.000 A 
ATOM     10  C17 UNL     1     159.389 158.728 168.973  0.00  0.00    +0.000 A 
ATOM     11  C18 UNL     1     158.213 158.437 169.648  0.00  0.00    +0.000 A 
ATOM     12  C19 UNL     1     157.138 157.793 169.005  0.00  0.00    +0.000 A 
ATOM     13  C20 UNL     1     157.271 157.448 167.699  0.00  0.00    +0.000 A 
ATOM     14  C21 UNL     1     156.310 156.814 166.932  0.00  0.00    +0.000 A 
ATOM     15  C22 UNL     1     156.520 156.488 165.578  0.00  0.00    +0.000 A 
ATOM     16  C23 UNL     1     155.998 157.468 169.667  0.00  0.00    +0.000 A 
ATOM     17  C24 UNL     1     155.870 157.772 171.005  0.00  0.00    +0.000 A 
ATOM     18  C25 UNL     1     156.935 158.417 171.638  0.00  0.00    +0.000 A 
ATOM     19  C26 UNL     1     158.077 158.739 170.963  0.00  0.00    +0.000 A 
ENDBRANCH   4   6
BRANCH   3  20
ATOM     20  C3  UNL     1     157.939 154.110 163.054  0.00  0.00    +0.000 A 
ATOM     21  C4  UNL     1     157.235 153.283 162.198  0.00  0.00    +0.000 A 
ATOM     22  C5  UNL     1     157.313 151.930 162.231  0.00  0.00    +0.000 A 
ATOM     23  C6  UNL     1     158.138 151.281 163.158  0.00  0.00    +0.000 A 
ATOM     24  C9  UNL     1     158.836 152.070 164.037  0.00  0.00    +0.000 A 
ATOM     25  C10 UNL     1     158.751 153.439 163.994  0.00  0.00    +0.000 A 
BRANCH  23  26
ATOM     26  N3  UNL     1     158.397 149.872 162.966  0.00  0.00    +0.000 N 
ATOM     27  C7  UNL     1     157.508 149.063 163.745  0.00  0.00    +0.000 C 
ATOM     28  O1  UNL     1     156.605 149.682 164.452  0.00  0.00    +0.000 OA
ATOM     29  H3  UNL     1     159.093 149.447 162.376  0.00  0.00    +0.000 HD
BRANCH  27  30
ATOM     30  C8  UNL     1     157.499 147.623 163.824  0.00  0.00    +0.000 C 
BRANCH  30  31
ATOM     31  N4  UNL     1     156.260 146.948 163.675  0.00  0.00    +0.000 NA
ATOM     32  H6  UNL     1     155.807 146.605 164.537  0.00  0.00    +0.000 HD
ATOM     33  H7  UNL     1     155.578 147.596 163.165  0.00  0.00    +0.000 HD
ENDBRANCH  30  31
ENDBRANCH  27  30
ENDBRANCH  23  26
ENDBRANCH   3  20
BRANCH   1  35
ATOM     34  F1  UNL     1     159.719 156.992 159.303  0.00  0.00    +0.000 F 
ATOM     35  C1  UNL     1     159.320 157.871 160.275  0.00  0.00    +0.000 C 
ATOM     36  F2  UNL     1     160.381 158.654 160.670  0.00  0.00    +0.000 F 
ATOM     37  F3  UNL     1     158.305 158.709 159.832  0.00  0.00    +0.000 F 
ENDBRANCH   1  35
TORSDOF 6
ENDMDL
MODEL 3
REMARK VINA RESULT:      -7.5      7.098     10.426
REMARK  Name = ./3D_structures\o25_MMV1578560_3D.pdb
REMARK  6 active torsions:
REMARK  status: ('A' for Active; 'I' for Inactive)
REMARK    1  A    between atoms: C1_2  and  C2_5
REMARK    2  A    between atoms: N2_7  and  C3_8
REMARK    3  A    between atoms: C6_11  and  N3_12
REMARK    4  A    between atoms: C7_13  and  C8_15
REMARK    5  A    between atoms: C8_15  and  N4_16
REMARK    6  A    between atoms: C11_19  and  C13_21
REMARK                            x       y       z     vdW  Elec       q    Type
REMARK                         _______ _______ _______ _____ _____    ______ ____
ROOT
ATOM      1  C2  UNL     1     147.202 164.542 167.854  0.00  0.00    +0.000 A 
ATOM      2  N1  UNL     1     148.138 165.351 167.372  0.00  0.00    +0.000 NA
ATOM      3  N2  UNL     1     149.329 164.682 167.200  0.00  0.00    +0.000 N 
ATOM      4  C11 UNL     1     149.179 163.441 167.569  0.00  0.00    +0.000 A 
ATOM      5  C12 UNL     1     147.827 163.325 167.988  0.00  0.00    +0.000 A 
ENDROOT
BRANCH   4   6
ATOM      6  C13 UNL     1     150.142 162.341 167.724  0.00  0.00    +0.000 A 
ATOM      7  C14 UNL     1     150.977 162.063 166.671  0.00  0.00    +0.000 A 
ATOM      8  C15 UNL     1     151.965 161.124 166.691  0.00  0.00    +0.000 A 
ATOM      9  C16 UNL     1     152.703 160.988 165.550  0.00  0.00    +0.000 A 
ATOM     10  C17 UNL     1     153.691 160.071 165.523  0.00  0.00    +0.000 A 
ATOM     11  C18 UNL     1     153.931 159.290 166.644  0.00  0.00    +0.000 A 
ATOM     12  C19 UNL     1     153.168 159.437 167.818  0.00  0.00    +0.000 A 
ATOM     13  C20 UNL     1     152.175 160.361 167.840  0.00  0.00    +0.000 A 
ATOM     14  C21 UNL     1     151.344 160.624 168.913  0.00  0.00    +0.000 A 
ATOM     15  C22 UNL     1     150.332 161.603 168.861  0.00  0.00    +0.000 A 
ATOM     16  C23 UNL     1     153.369 158.650 168.907  0.00  0.00    +0.000 A 
ATOM     17  C24 UNL     1     154.345 157.677 168.880  0.00  0.00    +0.000 A 
ATOM     18  C25 UNL     1     155.104 157.538 167.716  0.00  0.00    +0.000 A 
ATOM     19  C26 UNL     1     154.894 158.334 166.627  0.00  0.00    +0.000 A 
ENDBRANCH   4   6
BRANCH   3  20
ATOM     20  C3  UNL     1     150.395 165.477 166.699  0.00  0.00    +0.000 A 
ATOM     21  C4  UNL     1     151.450 165.938 167.464  0.00  0.00    +0.000 A 
ATOM     22  C5  UNL     1     152.607 166.408 166.938  0.00  0.00    +0.000 A 
ATOM     23  C6  UNL     1     152.802 166.447 165.551  0.00  0.00    +0.000 A 
ATOM     24  C9  UNL     1     151.768 166.015 164.760  0.00  0.00    +0.000 A 
ATOM     25  C10 UNL     1     150.600 165.540 165.303  0.00  0.00    +0.000 A 
BRANCH  23  26
ATOM     26  N3  UNL     1     154.140 166.687 165.061  0.00  0.00    +0.000 N 
ATOM     27  C7  UNL     1     154.348 168.072 164.754  0.00  0.00    +0.000 C 
ATOM     28  O1  UNL     1     153.360 168.888 164.990  0.00  0.00    +0.000 OA
ATOM     29  H3  UNL     1     154.879 166.016 164.928  0.00  0.00    +0.000 HD
BRANCH  27  30
ATOM     30  C8  UNL     1     155.547 168.665 164.217  0.00  0.00    +0.000 C 
BRANCH  30  31
ATOM     31  N4  UNL     1     155.454 169.947 163.618  0.00  0.00    +0.000 NA
ATOM     32  H6  UNL     1     156.134 170.660 163.929  0.00  0.00    +0.000 HD
ATOM     33  H7  UNL     1     155.538 169.834 162.557  0.00  0.00    +0.000 HD
ENDBRANCH  30  31
ENDBRANCH  27  30
ENDBRANCH  23  26
ENDBRANCH   3  20
BRANCH   1  35
ATOM     34  F1  UNL     1     145.182 165.585 167.194  0.00  0.00    +0.000 F 
ATOM     35  C1  UNL     1     145.797 164.920 168.222  0.00  0.00    +0.000 C 
ATOM     36  F2  UNL     1     145.826 165.713 169.348  0.00  0.00    +0.000 F 
ATOM     37  F3  UNL     1     145.141 163.739 168.543  0.00  0.00    +0.000 F 
ENDBRANCH   1  35
TORSDOF 6
ENDMDL
MODEL 4
REMARK VINA RESULT:      -7.4      4.738      7.593
REMARK  Name = ./3D_structures\o25_MMV1578560_3D.pdb
REMARK  6 active torsions:
REMARK  status: ('A' for Active; 'I' for Inactive)
REMARK    1  A    between atoms: C1_2  and  C2_5
REMARK    2  A    between atoms: N2_7  and  C3_8
REMARK    3  A    between atoms: C6_11  and  N3_12
REMARK    4  A    between atoms: C7_13  and  C8_15
REMARK    5  A    between atoms: C8_15  and  N4_16
REMARK    6  A    between atoms: C11_19  and  C13_21
REMARK                            x       y       z     vdW  Elec       q    Type
REMARK                         _______ _______ _______ _____ _____    ______ ____
ROOT
ATOM      1  C2  UNL     1     158.931 156.925 164.359  0.00  0.00    +0.000 A 
ATOM      2  N1  UNL     1     158.261 157.150 165.483  0.00  0.00    +0.000 NA
ATOM      3  N2  UNL     1     159.095 157.629 166.468  0.00  0.00    +0.000 N 
ATOM      4  C11 UNL     1     160.307 157.716 165.997  0.00  0.00    +0.000 A 
ATOM      5  C12 UNL     1     160.228 157.274 164.649  0.00  0.00    +0.000 A 
ENDROOT
BRANCH   4   6
ATOM      6  C13 UNL     1     161.590 158.027 166.643  0.00  0.00    +0.000 A 
ATOM      7  C14 UNL     1     161.844 159.335 166.972  0.00  0.00    +0.000 A 
ATOM      8  C15 UNL     1     162.955 159.767 167.635  0.00  0.00    +0.000 A 
ATOM      9  C16 UNL     1     163.037 161.108 167.883  0.00  0.00    +0.000 A 
ATOM     10  C17 UNL     1     164.118 161.580 168.536  0.00  0.00    +0.000 A 
ATOM     11  C18 UNL     1     165.115 160.702 168.936  0.00  0.00    +0.000 A 
ATOM     12  C19 UNL     1     165.022 159.321 168.680  0.00  0.00    +0.000 A 
ATOM     13  C20 UNL     1     163.933 158.850 168.022  0.00  0.00    +0.000 A 
ATOM     14  C21 UNL     1     163.697 157.527 167.699  0.00  0.00    +0.000 A 
ATOM     15  C22 UNL     1     162.538 157.112 167.013  0.00  0.00    +0.000 A 
ATOM     16  C23 UNL     1     166.011 158.459 169.032  0.00  0.00    +0.000 A 
ATOM     17  C24 UNL     1     167.143 158.932 169.659  0.00  0.00    +0.000 A 
ATOM     18  C25 UNL     1     167.229 160.302 169.917  0.00  0.00    +0.000 A 
ATOM     19  C26 UNL     1     166.229 161.160 169.560  0.00  0.00    +0.000 A 
ENDBRANCH   4   6
BRANCH   3  20
ATOM     20  C3  UNL     1     158.463 157.886 167.714  0.00  0.00    +0.000 A 
ATOM     21  C4  UNL     1     159.125 158.312 168.851  0.00  0.00    +0.000 A 
ATOM     22  C5  UNL     1     158.500 158.858 169.922  0.00  0.00    +0.000 A 
ATOM     23  C6  UNL     1     157.110 159.029 169.932  0.00  0.00    +0.000 A 
ATOM     24  C9  UNL     1     156.417 158.599 168.828  0.00  0.00    +0.000 A 
ATOM     25  C10 UNL     1     157.061 158.049 167.748  0.00  0.00    +0.000 A 
BRANCH  23  26
ATOM     26  N3  UNL     1     156.536 159.863 170.964  0.00  0.00    +0.000 N 
ATOM     27  C7  UNL     1     156.225 159.105 172.140  0.00  0.00    +0.000 C 
ATOM     28  O1  UNL     1     156.529 157.837 172.129  0.00  0.00    +0.000 OA
ATOM     29  H3  UNL     1     156.352 160.851 170.927  0.00  0.00    +0.000 HD
BRANCH  27  30
ATOM     30  C8  UNL     1     155.615 159.601 173.348  0.00  0.00    +0.000 C 
BRANCH  30  31
ATOM     31  N4  UNL     1     155.821 160.960 173.698  0.00  0.00    +0.000 NA
ATOM     32  H6  UNL     1     155.990 161.167 174.695  0.00  0.00    +0.000 HD
ATOM     33  H7  UNL     1     156.643 161.338 173.126  0.00  0.00    +0.000 HD
ENDBRANCH  30  31
ENDBRANCH  27  30
ENDBRANCH  23  26
ENDBRANCH   3  20
BRANCH   1  35
ATOM     34  F1  UNL     1     157.926 157.344 162.257  0.00  0.00    +0.000 F 
ATOM     35  C1  UNL     1     158.375 156.352 163.087  0.00  0.00    +0.000 C 
ATOM     36  F2  UNL     1     157.347 155.490 163.396  0.00  0.00    +0.000 F 
ATOM     37  F3  UNL     1     159.399 155.613 162.508  0.00  0.00    +0.000 F 
ENDBRANCH   1  35
TORSDOF 6
ENDMDL
MODEL 5
REMARK VINA RESULT:      -7.4      5.047      7.468
REMARK  Name = ./3D_structures\o25_MMV1578560_3D.pdb
REMARK  6 active torsions:
REMARK  status: ('A' for Active; 'I' for Inactive)
REMARK    1  A    between atoms: C1_2  and  C2_5
REMARK    2  A    between atoms: N2_7  and  C3_8
REMARK    3  A    between atoms: C6_11  and  N3_12
REMARK    4  A    between atoms: C7_13  and  C8_15
REMARK    5  A    between atoms: C8_15  and  N4_16
REMARK    6  A    between atoms: C11_19  and  C13_21
REMARK                            x       y       z     vdW  Elec       q    Type
REMARK                         _______ _______ _______ _____ _____    ______ ____
ROOT
ATOM      1  C2  UNL     1     158.750 157.018 164.905  0.00  0.00    +0.000 A 
ATOM      2  N1  UNL     1     159.997 157.309 165.260  0.00  0.00    +0.000 NA
ATOM      3  N2  UNL     1     160.047 157.768 166.556  0.00  0.00    +0.000 N 
ATOM      4  C11 UNL     1     158.841 157.783 167.052  0.00  0.00    +0.000 A 
ATOM      5  C12 UNL     1     157.995 157.305 166.016  0.00  0.00    +0.000 A 
ENDROOT
BRANCH   4   6
ATOM      6  C13 UNL     1     158.308 158.302 168.320  0.00  0.00    +0.000 A 
ATOM      7  C14 UNL     1     158.564 159.613 168.636  0.00  0.00    +0.000 A 
ATOM      8  C15 UNL     1     158.079 160.255 169.738  0.00  0.00    +0.000 A 
ATOM      9  C16 UNL     1     158.435 161.565 169.889  0.00  0.00    +0.000 A 
ATOM     10  C17 UNL     1     157.979 162.239 170.964  0.00  0.00    +0.000 A 
ATOM     11  C18 UNL     1     157.169 161.592 171.886  0.00  0.00    +0.000 A 
ATOM     12  C19 UNL     1     156.805 160.242 171.723  0.00  0.00    +0.000 A 
ATOM     13  C20 UNL     1     157.266 159.567 170.639  0.00  0.00    +0.000 A 
ATOM     14  C21 UNL     1     156.997 158.245 170.340  0.00  0.00    +0.000 A 
ATOM     15  C22 UNL     1     157.512 157.611 169.192  0.00  0.00    +0.000 A 
ATOM     16  C23 UNL     1     156.046 159.589 172.640  0.00  0.00    +0.000 A 
ATOM     17  C24 UNL     1     155.610 160.250 173.767  0.00  0.00    +0.000 A 
ATOM     18  C25 UNL     1     155.968 161.592 173.923  0.00  0.00    +0.000 A 
ATOM     19  C26 UNL     1     156.731 162.239 172.995  0.00  0.00    +0.000 A 
ENDBRANCH   4   6
BRANCH   3  20
ATOM     20  C3  UNL     1     161.345 158.117 167.018  0.00  0.00    +0.000 A 
ATOM     21  C4  UNL     1     162.320 157.202 167.368  0.00  0.00    +0.000 A 
ATOM     22  C5  UNL     1     163.632 157.517 167.493  0.00  0.00    +0.000 A 
ATOM     23  C6  UNL     1     164.083 158.823 167.263  0.00  0.00    +0.000 A 
ATOM     24  C9  UNL     1     163.139 159.763 166.932  0.00  0.00    +0.000 A 
ATOM     25  C10 UNL     1     161.813 159.433 166.807  0.00  0.00    +0.000 A 
BRANCH  23  26
ATOM     26  N3  UNL     1     165.506 159.038 167.134  0.00  0.00    +0.000 N 
ATOM     27  C7  UNL     1     166.104 159.370 168.394  0.00  0.00    +0.000 C 
ATOM     28  O1  UNL     1     165.322 159.389 169.437  0.00  0.00    +0.000 OA
ATOM     29  H3  UNL     1     166.067 158.977 166.301  0.00  0.00    +0.000 HD
BRANCH  27  30
ATOM     30  C8  UNL     1     167.491 159.678 168.635  0.00  0.00    +0.000 C 
BRANCH  30  31
ATOM     31  N4  UNL     1     168.452 159.242 167.688  0.00  0.00    +0.000 NA
ATOM     32  H6  UNL     1     169.378 158.964 168.053  0.00  0.00    +0.000 HD
ATOM     33  H7  UNL     1     168.041 158.420 167.139  0.00  0.00    +0.000 HD
ENDBRANCH  30  31
ENDBRANCH  27  30
ENDBRANCH  23  26
ENDBRANCH   3  20
BRANCH   1  35
ATOM     34  F1  UNL     1     157.097 155.881 163.648  0.00  0.00    +0.000 F 
ATOM     35  C1  UNL     1     158.292 156.544 163.556  0.00  0.00    +0.000 C 
ATOM     36  F2  UNL     1     159.254 155.716 163.023  0.00  0.00    +0.000 F 
ATOM     37  F3  UNL     1     158.200 157.673 162.752  0.00  0.00    +0.000 F 
ENDBRANCH   1  35
TORSDOF 6
ENDMDL
MODEL 6
REMARK VINA RESULT:      -7.4      5.349      8.232
REMARK  Name = ./3D_structures\o25_MMV1578560_3D.pdb
REMARK  6 active torsions:
REMARK  status: ('A' for Active; 'I' for Inactive)
REMARK    1  A    between atoms: C1_2  and  C2_5
REMARK    2  A    between atoms: N2_7  and  C3_8
REMARK    3  A    between atoms: C6_11  and  N3_12
REMARK    4  A    between atoms: C7_13  and  C8_15
REMARK    5  A    between atoms: C8_15  and  N4_16
REMARK    6  A    between atoms: C11_19  and  C13_21
REMARK                            x       y       z     vdW  Elec       q    Type
REMARK                         _______ _______ _______ _____ _____    ______ ____
ROOT
ATOM      1  C2  UNL     1     158.484 157.904 161.317  0.00  0.00    +0.000 A 
ATOM      2  N1  UNL     1     158.340 156.594 161.484  0.00  0.00    +0.000 NA
ATOM      3  N2  UNL     1     158.063 156.291 162.798  0.00  0.00    +0.000 N 
ATOM      4  C11 UNL     1     158.027 157.394 163.492  0.00  0.00    +0.000 A 
ATOM      5  C12 UNL     1     158.290 158.439 162.567  0.00  0.00    +0.000 A 
ENDROOT
BRANCH   4   6
ATOM      6  C13 UNL     1     157.914 157.640 164.937  0.00  0.00    +0.000 A 
ATOM      7  C14 UNL     1     156.689 157.456 165.527  0.00  0.00    +0.000 A 
ATOM      8  C15 UNL     1     156.444 157.576 166.863  0.00  0.00    +0.000 A 
ATOM      9  C16 UNL     1     155.160 157.352 167.273  0.00  0.00    +0.000 A 
ATOM     10  C17 UNL     1     154.872 157.460 168.586  0.00  0.00    +0.000 A 
ATOM     11  C18 UNL     1     155.876 157.797 169.482  0.00  0.00    +0.000 A 
ATOM     12  C19 UNL     1     157.198 158.024 169.053  0.00  0.00    +0.000 A 
ATOM     13  C20 UNL     1     157.483 157.914 167.731  0.00  0.00    +0.000 A 
ATOM     14  C21 UNL     1     158.726 158.105 167.157  0.00  0.00    +0.000 A 
ATOM     15  C22 UNL     1     158.946 157.972 165.772  0.00  0.00    +0.000 A 
ATOM     16  C23 UNL     1     158.178 158.393 169.917  0.00  0.00    +0.000 A 
ATOM     17  C24 UNL     1     157.890 158.552 171.255  0.00  0.00    +0.000 A 
ATOM     18  C25 UNL     1     156.580 158.320 171.679  0.00  0.00    +0.000 A 
ATOM     19  C26 UNL     1     155.601 157.949 170.802  0.00  0.00    +0.000 A 
ENDBRANCH   4   6
BRANCH   3  20
ATOM     20  C3  UNL     1     157.907 154.906 163.073  0.00  0.00    +0.000 A 
ATOM     21  C4  UNL     1     157.472 153.973 162.151  0.00  0.00    +0.000 A 
ATOM     22  C5  UNL     1     157.628 152.635 162.308  0.00  0.00    +0.000 A 
ATOM     23  C6  UNL     1     158.263 152.115 163.443  0.00  0.00    +0.000 A 
ATOM     24  C9  UNL     1     158.690 153.012 164.389  0.00  0.00    +0.000 A 
ATOM     25  C10 UNL     1     158.528 154.364 164.219  0.00  0.00    +0.000 A 
BRANCH  23  26
ATOM     26  N3  UNL     1     158.651 150.723 163.425  0.00  0.00    +0.000 N 
ATOM     27  C7  UNL     1     157.633 149.886 163.990  0.00  0.00    +0.000 C 
ATOM     28  O1  UNL     1     156.535 150.467 164.383  0.00  0.00    +0.000 OA
ATOM     29  H3  UNL     1     159.506 150.324 163.076  0.00  0.00    +0.000 HD
BRANCH  27  30
ATOM     30  C8  UNL     1     157.691 148.456 164.163  0.00  0.00    +0.000 C 
BRANCH  30  31
ATOM     31  N4  UNL     1     156.546 147.690 163.828  0.00  0.00    +0.000 NA
ATOM     32  H6  UNL     1     155.883 147.479 164.591  0.00  0.00    +0.000 HD
ATOM     33  H7  UNL     1     156.017 148.193 163.045  0.00  0.00    +0.000 HD
ENDBRANCH  30  31
ENDBRANCH  27  30
ENDBRANCH  23  26
ENDBRANCH   3  20
BRANCH   1  35
ATOM     34  F1  UNL     1     159.354 157.728 159.122  0.00  0.00    +0.000 F 
ATOM     35  C1  UNL     1     158.843 158.607 160.040  0.00  0.00    +0.000 C 
ATOM     36  F2  UNL     1     159.764 159.593 160.315  0.00  0.00    +0.000 F 
ATOM     37  F3  UNL     1     157.681 159.216 159.585  0.00  0.00    +0.000 F 
ENDBRANCH   1  35
TORSDOF 6
ENDMDL
MODEL 7
REMARK VINA RESULT:      -7.3      6.290      9.678
REMARK  Name = ./3D_structures\o25_MMV1578560_3D.pdb
REMARK  6 active torsions:
REMARK  status: ('A' for Active; 'I' for Inactive)
REMARK    1  A    between atoms: C1_2  and  C2_5
REMARK    2  A    between atoms: N2_7  and  C3_8
REMARK    3  A    between atoms: C6_11  and  N3_12
REMARK    4  A    between atoms: C7_13  and  C8_15
REMARK    5  A    between atoms: C8_15  and  N4_16
REMARK    6  A    between atoms: C11_19  and  C13_21
REMARK                            x       y       z     vdW  Elec       q    Type
REMARK                         _______ _______ _______ _____ _____    ______ ____
ROOT
ATOM      1  C2  UNL     1     148.691 162.535 167.593  0.00  0.00    +0.000 A 
ATOM      2  N1  UNL     1     149.373 163.579 167.135  0.00  0.00    +0.000 NA
ATOM      3  N2  UNL     1     150.638 163.207 166.740  0.00  0.00    +0.000 N 
ATOM      4  C11 UNL     1     150.789 161.927 166.938  0.00  0.00    +0.000 A 
ATOM      5  C12 UNL     1     149.556 161.474 167.479  0.00  0.00    +0.000 A 
ENDROOT
BRANCH   4   6
ATOM      6  C13 UNL     1     151.962 161.049 166.826  0.00  0.00    +0.000 A 
ATOM      7  C14 UNL     1     152.363 160.365 167.945  0.00  0.00    +0.000 A 
ATOM      8  C15 UNL     1     153.386 159.463 167.980  0.00  0.00    +0.000 A 
ATOM      9  C16 UNL     1     153.642 158.873 169.185  0.00  0.00    +0.000 A 
ATOM     10  C17 UNL     1     154.644 157.975 169.267  0.00  0.00    +0.000 A 
ATOM     11  C18 UNL     1     155.390 157.677 168.136  0.00  0.00    +0.000 A 
ATOM     12  C19 UNL     1     155.119 158.286 166.896  0.00  0.00    +0.000 A 
ATOM     13  C20 UNL     1     154.109 159.190 166.819  0.00  0.00    +0.000 A 
ATOM     14  C21 UNL     1     153.722 159.869 165.679  0.00  0.00    +0.000 A 
ATOM     15  C22 UNL     1     152.660 160.794 165.675  0.00  0.00    +0.000 A 
ATOM     16  C23 UNL     1     155.868 158.030 165.793  0.00  0.00    +0.000 A 
ATOM     17  C24 UNL     1     156.925 157.150 165.870  0.00  0.00    +0.000 A 
ATOM     18  C25 UNL     1     157.187 156.541 167.100  0.00  0.00    +0.000 A 
ATOM     19  C26 UNL     1     156.428 156.806 168.203  0.00  0.00    +0.000 A 
ENDBRANCH   4   6
BRANCH   3  20
ATOM     20  C3  UNL     1     151.447 164.266 166.248  0.00  0.00    +0.000 A 
ATOM     21  C4  UNL     1     151.189 164.969 165.085  0.00  0.00    +0.000 A 
ATOM     22  C5  UNL     1     151.758 166.163 164.790  0.00  0.00    +0.000 A 
ATOM     23  C6  UNL     1     152.660 166.767 165.675  0.00  0.00    +0.000 A 
ATOM     24  C9  UNL     1     152.955 166.088 166.830  0.00  0.00    +0.000 A 
ATOM     25  C10 UNL     1     152.372 164.880 167.120  0.00  0.00    +0.000 A 
BRANCH  23  26
ATOM     26  N3  UNL     1     153.013 168.150 165.445  0.00  0.00    +0.000 N 
ATOM     27  C7  UNL     1     154.302 168.268 164.831  0.00  0.00    +0.000 C 
ATOM     28  O1  UNL     1     154.928 167.162 164.541  0.00  0.00    +0.000 OA
ATOM     29  H3  UNL     1     152.471 168.969 165.663  0.00  0.00    +0.000 HD
BRANCH  27  30
ATOM     30  C8  UNL     1     154.984 169.491 164.488  0.00  0.00    +0.000 C 
BRANCH  30  31
ATOM     31  N4  UNL     1     154.770 170.043 163.199  0.00  0.00    +0.000 NA
ATOM     32  H6  UNL     1     153.950 170.659 163.083  0.00  0.00    +0.000 HD
ATOM     33  H7  UNL     1     155.648 170.584 162.910  0.00  0.00    +0.000 HD
ENDBRANCH  30  31
ENDBRANCH  27  30
ENDBRANCH  23  26
ENDBRANCH   3  20
BRANCH   1  35
ATOM     34  F1  UNL     1     147.281 163.171 169.385  0.00  0.00    +0.000 F 
ATOM     35  C1  UNL     1     147.301 162.556 168.162  0.00  0.00    +0.000 C 
ATOM     36  F2  UNL     1     146.844 161.263 168.274  0.00  0.00    +0.000 F 
ATOM     37  F3  UNL     1     146.506 163.217 167.235  0.00  0.00    +0.000 F 
ENDBRANCH   1  35
TORSDOF 6
ENDMDL
MODEL 8
REMARK VINA RESULT:      -7.3      7.916     11.032
REMARK  Name = ./3D_structures\o25_MMV1578560_3D.pdb
REMARK  6 active torsions:
REMARK  status: ('A' for Active; 'I' for Inactive)
REMARK    1  A    between atoms: C1_2  and  C2_5
REMARK    2  A    between atoms: N2_7  and  C3_8
REMARK    3  A    between atoms: C6_11  and  N3_12
REMARK    4  A    between atoms: C7_13  and  C8_15
REMARK    5  A    between atoms: C8_15  and  N4_16
REMARK    6  A    between atoms: C11_19  and  C13_21
REMARK                            x       y       z     vdW  Elec       q    Type
REMARK                         _______ _______ _______ _____ _____    ______ ____
ROOT
ATOM      1  C2  UNL     1     150.126 166.022 170.878  0.00  0.00    +0.000 A 
ATOM      2  N1  UNL     1     148.994 165.570 170.351  0.00  0.00    +0.000 NA
ATOM      3  N2  UNL     1     149.149 164.288 169.874  0.00  0.00    +0.000 N 
ATOM      4  C11 UNL     1     150.375 163.899 170.083  0.00  0.00    +0.000 A 
ATOM      5  C12 UNL     1     151.019 164.989 170.727  0.00  0.00    +0.000 A 
ENDROOT
BRANCH   4   6
ATOM      6  C13 UNL     1     151.109 162.698 169.660  0.00  0.00    +0.000 A 
ATOM      7  C14 UNL     1     151.514 162.620 168.351  0.00  0.00    +0.000 A 
ATOM      8  C15 UNL     1     152.261 161.606 167.828  0.00  0.00    +0.000 A 
ATOM      9  C16 UNL     1     152.576 161.697 166.502  0.00  0.00    +0.000 A 
ATOM     10  C17 UNL     1     153.314 160.717 165.943  0.00  0.00    +0.000 A 
ATOM     11  C18 UNL     1     153.728 159.644 166.719  0.00  0.00    +0.000 A 
ATOM     12  C19 UNL     1     153.403 159.557 168.085  0.00  0.00    +0.000 A 
ATOM     13  C20 UNL     1     152.660 160.546 168.644  0.00  0.00    +0.000 A 
ATOM     14  C21 UNL     1     152.262 160.605 169.967  0.00  0.00    +0.000 A 
ATOM     15  C22 UNL     1     151.490 161.668 170.476  0.00  0.00    +0.000 A 
ATOM     16  C23 UNL     1     153.770 158.492 168.843  0.00  0.00    +0.000 A 
ATOM     17  C24 UNL     1     154.484 157.459 168.276  0.00  0.00    +0.000 A 
ATOM     18  C25 UNL     1     154.812 157.552 166.921  0.00  0.00    +0.000 A 
ATOM     19  C26 UNL     1     154.437 158.627 166.168  0.00  0.00    +0.000 A 
ENDBRANCH   4   6
BRANCH   3  20
ATOM     20  C3  UNL     1     147.987 163.727 169.278  0.00  0.00    +0.000 A 
ATOM     21  C4  UNL     1     146.719 163.798 169.824  0.00  0.00    +0.000 A 
ATOM     22  C5  UNL     1     145.586 163.556 169.120  0.00  0.00    +0.000 A 
ATOM     23  C6  UNL     1     145.643 163.217 167.762  0.00  0.00    +0.000 A 
ATOM     24  C9  UNL     1     146.887 163.118 167.192  0.00  0.00    +0.000 A 
ATOM     25  C10 UNL     1     148.027 163.366 167.913  0.00  0.00    +0.000 A 
BRANCH  23  26
ATOM     26  N3  UNL     1     144.413 163.249 167.003  0.00  0.00    +0.000 N 
ATOM     27  C7  UNL     1     144.232 164.510 166.348  0.00  0.00    +0.000 C 
ATOM     28  O1  UNL     1     145.178 165.396 166.489  0.00  0.00    +0.000 OA
ATOM     29  H3  UNL     1     143.730 162.516 166.904  0.00  0.00    +0.000 HD
BRANCH  27  30
ATOM     30  C8  UNL     1     143.109 164.905 165.535  0.00  0.00    +0.000 C 
BRANCH  30  31
ATOM     31  N4  UNL     1     142.732 166.272 165.525  0.00  0.00    +0.000 NA
ATOM     32  H6  UNL     1     143.349 166.933 166.025  0.00  0.00    +0.000 HD
ATOM     33  H7  UNL     1     142.640 166.593 164.508  0.00  0.00    +0.000 HD
ENDBRANCH  30  31
ENDBRANCH  27  30
ENDBRANCH  23  26
ENDBRANCH   3  20
BRANCH   1  35
ATOM     34  F1  UNL     1     149.190 168.092 171.543  0.00  0.00    +0.000 F 
ATOM     35  C1  UNL     1     150.363 167.391 171.448  0.00  0.00    +0.000 C 
ATOM     36  F2  UNL     1     151.252 168.064 170.641  0.00  0.00    +0.000 F 
ATOM     37  F3  UNL     1     150.959 167.205 172.688  0.00  0.00    +0.000 F 
ENDBRANCH   1  35
TORSDOF 6
ENDMDL
MODEL 9
REMARK VINA RESULT:      -7.1     16.382     19.613
REMARK  Name = ./3D_structures\o25_MMV1578560_3D.pdb
REMARK  6 active torsions:
REMARK  status: ('A' for Active; 'I' for Inactive)
REMARK    1  A    between atoms: C1_2  and  C2_5
REMARK    2  A    between atoms: N2_7  and  C3_8
REMARK    3  A    between atoms: C6_11  and  N3_12
REMARK    4  A    between atoms: C7_13  and  C8_15
REMARK    5  A    between atoms: C8_15  and  N4_16
REMARK    6  A    between atoms: C11_19  and  C13_21
REMARK                            x       y       z     vdW  Elec       q    Type
REMARK                         _______ _______ _______ _____ _____    ______ ____
ROOT
ATOM      1  C2  UNL     1     158.590 142.671 164.126  0.00  0.00    +0.000 A 
ATOM      2  N1  UNL     1     159.662 141.987 163.744  0.00  0.00    +0.000 NA
ATOM      3  N2  UNL     1     160.547 141.831 164.786  0.00  0.00    +0.000 N 
ATOM      4  C11 UNL     1     160.063 142.411 165.849  0.00  0.00    +0.000 A 
ATOM      5  C12 UNL     1     158.810 142.952 165.453  0.00  0.00    +0.000 A 
ENDROOT
BRANCH   4   6
ATOM      6  C13 UNL     1     160.640 142.667 167.176  0.00  0.00    +0.000 A 
ATOM      7  C14 UNL     1     160.094 143.674 167.932  0.00  0.00    +0.000 A 
ATOM      8  C15 UNL     1     160.473 143.983 169.205  0.00  0.00    +0.000 A 
ATOM      9  C16 UNL     1     159.814 145.016 169.807  0.00  0.00    +0.000 A 
ATOM     10  C17 UNL     1     160.156 145.357 171.066  0.00  0.00    +0.000 A 
ATOM     11  C18 UNL     1     161.164 144.658 171.714  0.00  0.00    +0.000 A 
ATOM     12  C19 UNL     1     161.838 143.592 171.089  0.00  0.00    +0.000 A 
ATOM     13  C20 UNL     1     161.490 143.253 169.822  0.00  0.00    +0.000 A 
ATOM     14  C21 UNL     1     162.054 142.234 169.077  0.00  0.00    +0.000 A 
ATOM     15  C22 UNL     1     161.639 141.939 167.764  0.00  0.00    +0.000 A 
ATOM     16  C23 UNL     1     162.852 142.928 171.701  0.00  0.00    +0.000 A 
ATOM     17  C24 UNL     1     163.245 143.293 172.970  0.00  0.00    +0.000 A 
ATOM     18  C25 UNL     1     162.571 144.348 173.590  0.00  0.00    +0.000 A 
ATOM     19  C26 UNL     1     161.552 145.008 172.966  0.00  0.00    +0.000 A 
ENDBRANCH   4   6
BRANCH   3  20
ATOM     20  C3  UNL     1     161.734 141.120 164.463  0.00  0.00    +0.000 A 
ATOM     21  C4  UNL     1     161.761 139.821 163.992  0.00  0.00    +0.000 A 
ATOM     22  C5  UNL     1     162.840 139.265 163.389  0.00  0.00    +0.000 A 
ATOM     23  C6  UNL     1     164.017 140.001 163.201  0.00  0.00    +0.000 A 
ATOM     24  C9  UNL     1     164.033 141.289 163.675  0.00  0.00    +0.000 A 
ATOM     25  C10 UNL     1     162.934 141.842 164.283  0.00  0.00    +0.000 A 
BRANCH  23  26
ATOM     26  N3  UNL     1     165.021 139.461 162.313  0.00  0.00    +0.000 N 
ATOM     27  C7  UNL     1     164.701 139.719 160.940  0.00  0.00    +0.000 C 
ATOM     28  O1  UNL     1     163.622 140.408 160.699  0.00  0.00    +0.000 OA
ATOM     29  H3  UNL     1     165.859 138.961 162.560  0.00  0.00    +0.000 HD
BRANCH  27  30
ATOM     30  C8  UNL     1     165.459 139.301 159.786  0.00  0.00    +0.000 C 
BRANCH  30  31
ATOM     31  N4  UNL     1     164.753 138.967 158.602  0.00  0.00    +0.000 NA
ATOM     32  H6  UNL     1     165.318 138.730 157.771  0.00  0.00    +0.000 HD
ATOM     33  H7  UNL     1     164.098 138.149 158.816  0.00  0.00    +0.000 HD
ENDBRANCH  30  31
ENDBRANCH  27  30
ENDBRANCH  23  26
ENDBRANCH   3  20
BRANCH   1  35
ATOM     34  F1  UNL     1     157.717 142.868 161.935  0.00  0.00    +0.000 F 
ATOM     35  C1  UNL     1     157.437 143.084 163.258  0.00  0.00    +0.000 C 
ATOM     36  F2  UNL     1     157.170 144.417 163.474  0.00  0.00    +0.000 F 
ATOM     37  F3  UNL     1     156.339 142.348 163.683  0.00  0.00    +0.000 F 
ENDBRANCH   1  35
TORSDOF 6
ENDMDL
