MODEL 1
REMARK VINA RESULT:      -4.5      0.000      0.000
REMARK  Name = ./3D_structures\o27_MMV004508_3D.pdb
REMARK  2 active torsions:
REMARK  status: ('A' for Active; 'I' for Inactive)
REMARK    1  A    between atoms: C2_3  and  N3_9
REMARK    2  A    between atoms: C3_5  and  O1_6
REMARK                            x       y       z     vdW  Elec       q    Type
REMARK                         _______ _______ _______ _____ _____    ______ ____
ROOT
ATOM      1  F1  UNL     1     145.884 163.794 165.852  0.00  0.00    +0.000 F 
ATOM      2  C1  UNL     1     145.690 165.147 165.794  0.00  0.00    +0.000 A 
ATOM      3  C2  UNL     1     146.780 165.996 165.825  0.00  0.00    +0.000 A 
ATOM      4  N1  UNL     1     146.506 167.319 165.763  0.00  0.00    +0.000 NA
ATOM      5  C3  UNL     1     145.244 167.793 165.677  0.00  0.00    +0.000 A 
ATOM      6  N2  UNL     1     144.219 166.935 165.650  0.00  0.00    +0.000 NA
ATOM      7  C4  UNL     1     144.394 165.584 165.708  0.00  0.00    +0.000 A 
ENDROOT
BRANCH   3   8
ATOM      8  N3  UNL     1     148.110 165.491 165.915  0.00  0.00    +0.000 N 
ATOM      9  H3  UNL     1     148.466 165.245 166.854  0.00  0.00    +0.000 HD
ATOM     10  H4  UNL     1     148.739 165.356 165.106  0.00  0.00    +0.000 HD
ENDBRANCH   3   8
BRANCH   5  11
ATOM     11  O1  UNL     1     144.975 169.165 165.614  0.00  0.00    +0.000 OA
ATOM     12  H1  UNL     1     145.757 169.762 165.904  0.00  0.00    +0.000 HD
ENDBRANCH   5  11
TORSDOF 2
ENDMDL
MODEL 2
REMARK VINA RESULT:      -4.4      8.317      8.489
REMARK  Name = ./3D_structures\o27_MMV004508_3D.pdb
REMARK  2 active torsions:
REMARK  status: ('A' for Active; 'I' for Inactive)
REMARK    1  A    between atoms: C2_3  and  N3_9
REMARK    2  A    between atoms: C3_5  and  O1_6
REMARK                            x       y       z     vdW  Elec       q    Type
REMARK                         _______ _______ _______ _____ _____    ______ ____
ROOT
ATOM      1  F1  UNL     1     148.512 174.461 164.339  0.00  0.00    +0.000 F 
ATOM      2  C1  UNL     1     147.282 174.420 164.938  0.00  0.00    +0.000 A 
ATOM      3  C2  UNL     1     146.146 174.319 164.158  0.00  0.00    +0.000 A 
ATOM      4  N1  UNL     1     144.969 174.282 164.825  0.00  0.00    +0.000 NA
ATOM      5  C3  UNL     1     144.898 174.341 166.172  0.00  0.00    +0.000 A 
ATOM      6  N2  UNL     1     146.024 174.438 166.887  0.00  0.00    +0.000 NA
ATOM      7  C4  UNL     1     147.257 174.482 166.307  0.00  0.00    +0.000 A 
ENDROOT
BRANCH   3   8
ATOM      8  N3  UNL     1     146.225 174.257 162.737  0.00  0.00    +0.000 N 
ATOM      9  H3  UNL     1     146.079 175.134 162.210  0.00  0.00    +0.000 HD
ATOM     10  H4  UNL     1     146.420 173.395 162.200  0.00  0.00    +0.000 HD
ENDBRANCH   3   8
BRANCH   5  11
ATOM     11  O1  UNL     1     143.673 174.302 166.847  0.00  0.00    +0.000 OA
ATOM     12  H1  UNL     1     143.624 174.914 167.669  0.00  0.00    +0.000 HD
ENDBRANCH   5  11
TORSDOF 2
ENDMDL
MODEL 3
REMARK VINA RESULT:      -4.3      0.902      2.383
REMARK  Name = ./3D_structures\o27_MMV004508_3D.pdb
REMARK  2 active torsions:
REMARK  status: ('A' for Active; 'I' for Inactive)
REMARK    1  A    between atoms: C2_3  and  N3_9
REMARK    2  A    between atoms: C3_5  and  O1_6
REMARK                            x       y       z     vdW  Elec       q    Type
REMARK                         _______ _______ _______ _____ _____    ______ ____
ROOT
ATOM      1  F1  UNL     1     145.418 163.825 165.733  0.00  0.00    +0.000 F 
ATOM      2  C1  UNL     1     145.295 165.187 165.714  0.00  0.00    +0.000 A 
ATOM      3  C2  UNL     1     144.037 165.759 165.729  0.00  0.00    +0.000 A 
ATOM      4  N1  UNL     1     143.998 167.111 165.709  0.00  0.00    +0.000 NA
ATOM      5  C3  UNL     1     145.117 167.867 165.676  0.00  0.00    +0.000 A 
ATOM      6  N2  UNL     1     146.314 167.271 165.663  0.00  0.00    +0.000 NA
ATOM      7  C4  UNL     1     146.456 165.915 165.681  0.00  0.00    +0.000 A 
ENDROOT
BRANCH   3   8
ATOM      8  N3  UNL     1     142.859 164.958 165.765  0.00  0.00    +0.000 N 
ATOM      9  H3  UNL     1     142.088 165.211 165.124  0.00  0.00    +0.000 HD
ATOM     10  H4  UNL     1     142.725 164.144 166.387  0.00  0.00    +0.000 HD
ENDBRANCH   3   8
BRANCH   5  11
ATOM     11  O1  UNL     1     145.061 169.265 165.656  0.00  0.00    +0.000 OA
ATOM     12  H1  UNL     1     144.134 169.648 165.442  0.00  0.00    +0.000 HD
ENDBRANCH   5  11
TORSDOF 2
ENDMDL
MODEL 4
REMARK VINA RESULT:      -4.3      8.322      8.579
REMARK  Name = ./3D_structures\o27_MMV004508_3D.pdb
REMARK  2 active torsions:
REMARK  status: ('A' for Active; 'I' for Inactive)
REMARK    1  A    between atoms: C2_3  and  N3_9
REMARK    2  A    between atoms: C3_5  and  O1_6
REMARK                            x       y       z     vdW  Elec       q    Type
REMARK                         _______ _______ _______ _____ _____    ______ ____
ROOT
ATOM      1  F1  UNL     1     148.053 174.808 165.341  0.00  0.00    +0.000 F 
ATOM      2  C1  UNL     1     146.699 174.696 165.181  0.00  0.00    +0.000 A 
ATOM      3  C2  UNL     1     145.909 174.361 166.265  0.00  0.00    +0.000 A 
ATOM      4  N1  UNL     1     144.581 174.271 166.027  0.00  0.00    +0.000 NA
ATOM      5  C3  UNL     1     144.048 174.493 164.806  0.00  0.00    +0.000 A 
ATOM      6  N2  UNL     1     144.850 174.814 163.786  0.00  0.00    +0.000 NA
ATOM      7  C4  UNL     1     146.201 174.929 163.926  0.00  0.00    +0.000 A 
ENDROOT
BRANCH   3   8
ATOM      8  N3  UNL     1     146.476 174.129 167.551  0.00  0.00    +0.000 N 
ATOM      9  H3  UNL     1     145.894 174.348 168.377  0.00  0.00    +0.000 HD
ATOM     10  H4  UNL     1     147.427 173.757 167.712  0.00  0.00    +0.000 HD
ENDBRANCH   3   8
BRANCH   5  11
ATOM     11  O1  UNL     1     142.671 174.396 164.575  0.00  0.00    +0.000 OA
ATOM     12  H1  UNL     1     142.091 174.532 165.410  0.00  0.00    +0.000 HD
ENDBRANCH   5  11
TORSDOF 2
ENDMDL
MODEL 5
REMARK VINA RESULT:      -4.2      2.110      3.017
REMARK  Name = ./3D_structures\o27_MMV004508_3D.pdb
REMARK  2 active torsions:
REMARK  status: ('A' for Active; 'I' for Inactive)
REMARK    1  A    between atoms: C2_3  and  N3_9
REMARK    2  A    between atoms: C3_5  and  O1_6
REMARK                            x       y       z     vdW  Elec       q    Type
REMARK                         _______ _______ _______ _____ _____    ______ ____
ROOT
ATOM      1  F1  UNL     1     143.606 165.722 166.040  0.00  0.00    +0.000 F 
ATOM      2  C1  UNL     1     144.965 165.871 165.988  0.00  0.00    +0.000 A 
ATOM      3  C2  UNL     1     145.507 167.118 165.739  0.00  0.00    +0.000 A 
ATOM      4  N1  UNL     1     146.858 167.183 165.705  0.00  0.00    +0.000 NA
ATOM      5  C3  UNL     1     147.640 166.099 165.901  0.00  0.00    +0.000 A 
ATOM      6  N2  UNL     1     147.072 164.912 166.139  0.00  0.00    +0.000 NA
ATOM      7  C4  UNL     1     145.720 164.745 166.193  0.00  0.00    +0.000 A 
ENDROOT
BRANCH   3   8
ATOM      8  N3  UNL     1     144.678 168.258 165.534  0.00  0.00    +0.000 N 
ATOM      9  H3  UNL     1     145.130 169.124 165.195  0.00  0.00    +0.000 HD
ATOM     10  H4  UNL     1     143.658 168.276 165.700  0.00  0.00    +0.000 HD
ENDBRANCH   3   8
BRANCH   5  11
ATOM     11  O1  UNL     1     149.036 166.182 165.862  0.00  0.00    +0.000 OA
ATOM     12  H1  UNL     1     149.408 167.126 166.010  0.00  0.00    +0.000 HD
ENDBRANCH   5  11
TORSDOF 2
ENDMDL
MODEL 6
REMARK VINA RESULT:      -3.8      1.788      2.406
REMARK  Name = ./3D_structures\o27_MMV004508_3D.pdb
REMARK  2 active torsions:
REMARK  status: ('A' for Active; 'I' for Inactive)
REMARK    1  A    between atoms: C2_3  and  N3_9
REMARK    2  A    between atoms: C3_5  and  O1_6
REMARK                            x       y       z     vdW  Elec       q    Type
REMARK                         _______ _______ _______ _____ _____    ______ ____
ROOT
ATOM      1  F1  UNL     1     148.542 164.249 166.654  0.00  0.00    +0.000 F 
ATOM      2  C1  UNL     1     147.515 165.089 166.318  0.00  0.00    +0.000 A 
ATOM      3  C2  UNL     1     146.223 164.601 166.265  0.00  0.00    +0.000 A 
ATOM      4  N1  UNL     1     145.265 165.494 165.927  0.00  0.00    +0.000 NA
ATOM      5  C3  UNL     1     145.543 166.787 165.656  0.00  0.00    +0.000 A 
ATOM      6  N2  UNL     1     146.808 167.216 165.720  0.00  0.00    +0.000 NA
ATOM      7  C4  UNL     1     147.843 166.393 166.051  0.00  0.00    +0.000 A 
ENDROOT
BRANCH   3   8
ATOM      8  N3  UNL     1     145.934 163.236 166.552  0.00  0.00    +0.000 N 
ATOM      9  H3  UNL     1     145.035 163.024 167.016  0.00  0.00    +0.000 HD
ATOM     10  H4  UNL     1     146.561 162.446 166.327  0.00  0.00    +0.000 HD
ENDBRANCH   3   8
BRANCH   5  11
ATOM     11  O1  UNL     1     144.541 167.699 165.307  0.00  0.00    +0.000 OA
ATOM     12  H1  UNL     1     144.417 167.827 164.297  0.00  0.00    +0.000 HD
ENDBRANCH   5  11
TORSDOF 2
ENDMDL
MODEL 7
REMARK VINA RESULT:      -3.8      2.884      3.967
REMARK  Name = ./3D_structures\o27_MMV004508_3D.pdb
REMARK  2 active torsions:
REMARK  status: ('A' for Active; 'I' for Inactive)
REMARK    1  A    between atoms: C2_3  and  N3_9
REMARK    2  A    between atoms: C3_5  and  O1_6
REMARK                            x       y       z     vdW  Elec       q    Type
REMARK                         _______ _______ _______ _____ _____    ______ ____
ROOT
ATOM      1  F1  UNL     1     145.087 168.088 165.671  0.00  0.00    +0.000 F 
ATOM      2  C1  UNL     1     145.252 166.732 165.754  0.00  0.00    +0.000 A 
ATOM      3  C2  UNL     1     144.150 165.903 165.665  0.00  0.00    +0.000 A 
ATOM      4  N1  UNL     1     144.395 164.576 165.755  0.00  0.00    +0.000 NA
ATOM      5  C3  UNL     1     145.640 164.080 165.924  0.00  0.00    +0.000 A 
ATOM      6  N2  UNL     1     146.678 164.920 166.005  0.00  0.00    +0.000 NA
ATOM      7  C4  UNL     1     146.532 166.273 165.925  0.00  0.00    +0.000 A 
ENDROOT
BRANCH   3   8
ATOM      8  N3  UNL     1     142.838 166.430 165.487  0.00  0.00    +0.000 N 
ATOM      9  H3  UNL     1     142.752 167.438 165.273  0.00  0.00    +0.000 HD
ATOM     10  H4  UNL     1     141.970 165.873 165.557  0.00  0.00    +0.000 HD
ENDBRANCH   3   8
BRANCH   5  11
ATOM     11  O1  UNL     1     145.879 162.704 166.016  0.00  0.00    +0.000 OA
ATOM     12  H1  UNL     1     145.031 162.133 166.097  0.00  0.00    +0.000 HD
ENDBRANCH   5  11
TORSDOF 2
ENDMDL
MODEL 8
REMARK VINA RESULT:      -3.6      3.118      3.395
REMARK  Name = ./3D_structures\o27_MMV004508_3D.pdb
REMARK  2 active torsions:
REMARK  status: ('A' for Active; 'I' for Inactive)
REMARK    1  A    between atoms: C2_3  and  N3_9
REMARK    2  A    between atoms: C3_5  and  O1_6
REMARK                            x       y       z     vdW  Elec       q    Type
REMARK                         _______ _______ _______ _____ _____    ______ ____
ROOT
ATOM      1  F1  UNL     1     145.678 164.482 165.198  0.00  0.00    +0.000 F 
ATOM      2  C1  UNL     1     145.930 164.619 166.535  0.00  0.00    +0.000 A 
ATOM      3  C2  UNL     1     147.155 165.105 166.953  0.00  0.00    +0.000 A 
ATOM      4  N1  UNL     1     147.326 165.213 168.291  0.00  0.00    +0.000 NA
ATOM      5  C3  UNL     1     146.364 164.868 169.174  0.00  0.00    +0.000 A 
ATOM      6  N2  UNL     1     145.195 164.401 168.725  0.00  0.00    +0.000 NA
ATOM      7  C4  UNL     1     144.927 164.257 167.396  0.00  0.00    +0.000 A 
ENDROOT
BRANCH   3   8
ATOM      8  N3  UNL     1     148.166 165.469 166.018  0.00  0.00    +0.000 N 
ATOM      9  H3  UNL     1     148.334 164.831 165.222  0.00  0.00    +0.000 HD
ATOM     10  H4  UNL     1     148.740 166.326 166.083  0.00  0.00    +0.000 HD
ENDBRANCH   3   8
BRANCH   5  11
ATOM     11  O1  UNL     1     146.557 164.984 170.555  0.00  0.00    +0.000 OA
ATOM     12  H1  UNL     1     146.342 164.133 171.085  0.00  0.00    +0.000 HD
ENDBRANCH   5  11
TORSDOF 2
ENDMDL
MODEL 9
REMARK VINA RESULT:      -3.5      3.384      4.156
REMARK  Name = ./3D_structures\o27_MMV004508_3D.pdb
REMARK  2 active torsions:
REMARK  status: ('A' for Active; 'I' for Inactive)
REMARK    1  A    between atoms: C2_3  and  N3_9
REMARK    2  A    between atoms: C3_5  and  O1_6
REMARK                            x       y       z     vdW  Elec       q    Type
REMARK                         _______ _______ _______ _____ _____    ______ ____
ROOT
ATOM      1  F1  UNL     1     146.139 164.954 165.312  0.00  0.00    +0.000 F 
ATOM      2  C1  UNL     1     146.188 164.892 166.678  0.00  0.00    +0.000 A 
ATOM      3  C2  UNL     1     145.044 164.585 167.390  0.00  0.00    +0.000 A 
ATOM      4  N1  UNL     1     145.174 164.542 168.735  0.00  0.00    +0.000 NA
ATOM      5  C3  UNL     1     146.349 164.782 169.357  0.00  0.00    +0.000 A 
ATOM      6  N2  UNL     1     147.431 165.075 168.628  0.00  0.00    +0.000 NA
ATOM      7  C4  UNL     1     147.400 165.143 167.267  0.00  0.00    +0.000 A 
ENDROOT
BRANCH   3   8
ATOM      8  N3  UNL     1     143.807 164.332 166.730  0.00  0.00    +0.000 N 
ATOM      9  H3  UNL     1     143.689 163.415 166.268  0.00  0.00    +0.000 HD
ATOM     10  H4  UNL     1     143.021 165.002 166.684  0.00  0.00    +0.000 HD
ENDBRANCH   3   8
BRANCH   5  11
ATOM     11  O1  UNL     1     146.469 164.734 170.750  0.00  0.00    +0.000 OA
ATOM     12  H1  UNL     1     145.582 164.841 171.255  0.00  0.00    +0.000 HD
ENDBRANCH   5  11
TORSDOF 2
ENDMDL
