MODEL 1
REMARK VINA RESULT:      -7.0      0.000      0.000
REMARK  Name = ./3D_structures\o28_MMV1782212_3D.pdb
REMARK  5 active torsions:
REMARK  status: ('A' for Active; 'I' for Inactive)
REMARK    1  A    between atoms: C1_1  and  C2_2
REMARK    2  A    between atoms: C2_2  and  C3_3
REMARK    3  A    between atoms: C2_2  and  C4_4
REMARK    4  A    between atoms: C2_2  and  C5_5
REMARK    5  A    between atoms: C8_8  and  C11_11
REMARK                            x       y       z     vdW  Elec       q    Type
REMARK                         _______ _______ _______ _____ _____    ______ ____
ROOT
ATOM      1  C11 UNL     1     155.737 157.654 167.747  0.00  0.00    +0.000 C 
ATOM      2  O1  UNL     1     154.568 157.208 167.545  0.00  0.00    +0.000 OA
ATOM      3  N1  UNL     1     155.931 158.552 168.829  0.00  0.00    +0.000 N 
ATOM      4  C12 UNL     1     154.840 158.877 169.726  0.00  0.00    +0.000 C 
ATOM      5  O2  UNL     1     153.735 158.323 169.451  0.00  0.00    +0.000 OA
ATOM      6  N2  UNL     1     155.056 159.751 170.811  0.00  0.00    +0.000 N 
ATOM      7  C13 UNL     1     156.329 160.366 171.029  0.00  0.00    +0.000 C 
ATOM      8  C14 UNL     1     156.446 160.904 172.452  0.00  0.00    +0.000 C 
ATOM      9  C15 UNL     1     155.626 160.085 173.430  0.00  0.00    +0.000 C 
ATOM     10  C16 UNL     1     154.196 160.158 173.048  0.00  0.00    +0.000 A 
ATOM     11  C17 UNL     1     153.183 160.378 173.925  0.00  0.00    +0.000 A 
ATOM     12  C18 UNL     1     151.866 160.437 173.466  0.00  0.00    +0.000 A 
ATOM     13  C19 UNL     1     151.606 160.271 172.112  0.00  0.00    +0.000 A 
ATOM     14  C20 UNL     1     152.644 160.050 171.239  0.00  0.00    +0.000 A 
ATOM     15  C21 UNL     1     153.945 159.989 171.685  0.00  0.00    +0.000 A 
ATOM     16  H14 UNL     1     156.864 158.956 168.985  0.00  0.00    +0.000 HD
ENDROOT
BRANCH   1  20
ATOM     17  C5  UNL     1     158.872 156.360 165.167  0.00  0.00    +0.000 A 
ATOM     18  C6  UNL     1     159.143 157.212 166.224  0.00  0.00    +0.000 A 
ATOM     19  C7  UNL     1     158.123 157.635 167.060  0.00  0.00    +0.000 A 
ATOM     20  C8  UNL     1     156.815 157.220 166.864  0.00  0.00    +0.000 A 
ATOM     21  C9  UNL     1     156.582 156.369 165.796  0.00  0.00    +0.000 A 
ATOM     22  C10 UNL     1     157.584 155.925 164.939  0.00  0.00    +0.000 A 
BRANCH  17  24
ATOM     23  C1  UNL     1     161.289 156.254 164.820  0.00  0.00    +0.000 C 
ATOM     24  C2  UNL     1     159.938 155.889 164.252  0.00  0.00    +0.000 C 
ATOM     25  C3  UNL     1     159.899 154.357 164.196  0.00  0.00    +0.000 C 
ATOM     26  C4  UNL     1     159.839 156.479 162.866  0.00  0.00    +0.000 C 
ENDBRANCH  17  24
ENDBRANCH   1  20
TORSDOF 2
ENDMDL
MODEL 2
REMARK VINA RESULT:      -6.9     15.212     17.904
REMARK  Name = ./3D_structures\o28_MMV1782212_3D.pdb
REMARK  5 active torsions:
REMARK  status: ('A' for Active; 'I' for Inactive)
REMARK    1  A    between atoms: C1_1  and  C2_2
REMARK    2  A    between atoms: C2_2  and  C3_3
REMARK    3  A    between atoms: C2_2  and  C4_4
REMARK    4  A    between atoms: C2_2  and  C5_5
REMARK    5  A    between atoms: C8_8  and  C11_11
REMARK                            x       y       z     vdW  Elec       q    Type
REMARK                         _______ _______ _______ _____ _____    ______ ____
ROOT
ATOM      1  C11 UNL     1     165.077 141.869 167.457  0.00  0.00    +0.000 C 
ATOM      2  O1  UNL     1     165.988 141.814 168.337  0.00  0.00    +0.000 OA
ATOM      3  N1  UNL     1     163.779 142.273 167.866  0.00  0.00    +0.000 N 
ATOM      4  C12 UNL     1     163.529 142.696 169.230  0.00  0.00    +0.000 C 
ATOM      5  O2  UNL     1     164.535 142.649 169.998  0.00  0.00    +0.000 OA
ATOM      6  N2  UNL     1     162.240 143.119 169.612  0.00  0.00    +0.000 N 
ATOM      7  C13 UNL     1     161.148 143.104 168.688  0.00  0.00    +0.000 C 
ATOM      8  C14 UNL     1     159.999 143.981 169.177  0.00  0.00    +0.000 C 
ATOM      9  C15 UNL     1     160.499 145.144 170.013  0.00  0.00    +0.000 C 
ATOM     10  C16 UNL     1     161.194 144.619 171.212  0.00  0.00    +0.000 A 
ATOM     11  C17 UNL     1     161.005 145.093 172.471  0.00  0.00    +0.000 A 
ATOM     12  C18 UNL     1     161.702 144.526 173.539  0.00  0.00    +0.000 A 
ATOM     13  C19 UNL     1     162.583 143.480 173.302  0.00  0.00    +0.000 A 
ATOM     14  C20 UNL     1     162.761 143.013 172.021  0.00  0.00    +0.000 A 
ATOM     15  C21 UNL     1     162.078 143.569 170.963  0.00  0.00    +0.000 A 
ATOM     16  H14 UNL     1     163.017 142.286 167.175  0.00  0.00    +0.000 HD
ENDROOT
BRANCH   1  20
ATOM     17  C5  UNL     1     166.024 140.826 163.436  0.00  0.00    +0.000 A 
ATOM     18  C6  UNL     1     167.027 140.944 164.382  0.00  0.00    +0.000 A 
ATOM     19  C7  UNL     1     166.719 141.287 165.689  0.00  0.00    +0.000 A 
ATOM     20  C8  UNL     1     165.410 141.518 166.080  0.00  0.00    +0.000 A 
ATOM     21  C9  UNL     1     164.433 141.391 165.106  0.00  0.00    +0.000 A 
ATOM     22  C10 UNL     1     164.709 141.048 163.787  0.00  0.00    +0.000 A 
BRANCH  17  24
ATOM     23  C1  UNL     1     165.739 141.511 161.106  0.00  0.00    +0.000 C 
ATOM     24  C2  UNL     1     166.317 140.464 162.030  0.00  0.00    +0.000 C 
ATOM     25  C3  UNL     1     167.836 140.499 161.817  0.00  0.00    +0.000 C 
ATOM     26  C4  UNL     1     165.752 139.122 161.628  0.00  0.00    +0.000 C 
ENDBRANCH  17  24
ENDBRANCH   1  20
TORSDOF 2
ENDMDL
MODEL 3
REMARK VINA RESULT:      -6.7      5.380     10.052
REMARK  Name = ./3D_structures\o28_MMV1782212_3D.pdb
REMARK  5 active torsions:
REMARK  status: ('A' for Active; 'I' for Inactive)
REMARK    1  A    between atoms: C1_1  and  C2_2
REMARK    2  A    between atoms: C2_2  and  C3_3
REMARK    3  A    between atoms: C2_2  and  C4_4
REMARK    4  A    between atoms: C2_2  and  C5_5
REMARK    5  A    between atoms: C8_8  and  C11_11
REMARK                            x       y       z     vdW  Elec       q    Type
REMARK                         _______ _______ _______ _____ _____    ______ ____
ROOT
ATOM      1  C11 UNL     1     150.065 161.066 168.607  0.00  0.00    +0.000 C 
ATOM      2  O1  UNL     1     149.935 160.544 169.754  0.00  0.00    +0.000 OA
ATOM      3  N1  UNL     1     151.274 160.831 167.900  0.00  0.00    +0.000 N 
ATOM      4  C12 UNL     1     152.288 159.946 168.440  0.00  0.00    +0.000 C 
ATOM      5  O2  UNL     1     152.013 159.441 169.568  0.00  0.00    +0.000 OA
ATOM      6  N2  UNL     1     153.470 159.703 167.713  0.00  0.00    +0.000 N 
ATOM      7  C13 UNL     1     153.719 160.347 166.460  0.00  0.00    +0.000 C 
ATOM      8  C14 UNL     1     154.815 159.628 165.678  0.00  0.00    +0.000 C 
ATOM      9  C15 UNL     1     154.840 158.142 165.986  0.00  0.00    +0.000 C 
ATOM     10  C16 UNL     1     155.128 157.949 167.427  0.00  0.00    +0.000 A 
ATOM     11  C17 UNL     1     156.022 157.049 167.911  0.00  0.00    +0.000 A 
ATOM     12  C18 UNL     1     156.229 156.946 169.288  0.00  0.00    +0.000 A 
ATOM     13  C19 UNL     1     155.517 157.768 170.150  0.00  0.00    +0.000 A 
ATOM     14  C20 UNL     1     154.616 158.674 169.641  0.00  0.00    +0.000 A 
ATOM     15  C21 UNL     1     154.406 158.780 168.285  0.00  0.00    +0.000 A 
ATOM     16  H14 UNL     1     151.415 161.279 166.985  0.00  0.00    +0.000 HD
ENDROOT
BRANCH   1  20
ATOM     17  C5  UNL     1     146.885 163.452 167.074  0.00  0.00    +0.000 A 
ATOM     18  C6  UNL     1     146.659 162.136 167.437  0.00  0.00    +0.000 A 
ATOM     19  C7  UNL     1     147.694 161.360 167.932  0.00  0.00    +0.000 A 
ATOM     20  C8  UNL     1     148.972 161.876 168.077  0.00  0.00    +0.000 A 
ATOM     21  C9  UNL     1     149.161 163.196 167.702  0.00  0.00    +0.000 A 
ATOM     22  C10 UNL     1     148.143 164.002 167.203  0.00  0.00    +0.000 A 
BRANCH  17  24
ATOM     23  C1  UNL     1     145.341 163.770 165.206  0.00  0.00    +0.000 C 
ATOM     24  C2  UNL     1     145.802 164.311 166.540  0.00  0.00    +0.000 C 
ATOM     25  C3  UNL     1     144.592 164.221 167.478  0.00  0.00    +0.000 C 
ATOM     26  C4  UNL     1     146.221 165.748 166.342  0.00  0.00    +0.000 C 
ENDBRANCH  17  24
ENDBRANCH   1  20
TORSDOF 2
ENDMDL
MODEL 4
REMARK VINA RESULT:      -6.7      5.597      7.962
REMARK  Name = ./3D_structures\o28_MMV1782212_3D.pdb
REMARK  5 active torsions:
REMARK  status: ('A' for Active; 'I' for Inactive)
REMARK    1  A    between atoms: C1_1  and  C2_2
REMARK    2  A    between atoms: C2_2  and  C3_3
REMARK    3  A    between atoms: C2_2  and  C4_4
REMARK    4  A    between atoms: C2_2  and  C5_5
REMARK    5  A    between atoms: C8_8  and  C11_11
REMARK                            x       y       z     vdW  Elec       q    Type
REMARK                         _______ _______ _______ _____ _____    ______ ____
ROOT
ATOM      1  C11 UNL     1     150.825 160.413 169.232  0.00  0.00    +0.000 C 
ATOM      2  O1  UNL     1     149.817 159.807 169.706  0.00  0.00    +0.000 OA
ATOM      3  N1  UNL     1     150.595 161.551 168.416  0.00  0.00    +0.000 N 
ATOM      4  C12 UNL     1     149.252 162.055 168.207  0.00  0.00    +0.000 C 
ATOM      5  O2  UNL     1     148.337 161.395 168.781  0.00  0.00    +0.000 OA
ATOM      6  N2  UNL     1     149.045 163.202 167.416  0.00  0.00    +0.000 N 
ATOM      7  C13 UNL     1     150.134 163.868 166.770  0.00  0.00    +0.000 C 
ATOM      8  C14 UNL     1     149.744 165.280 166.343  0.00  0.00    +0.000 C 
ATOM      9  C15 UNL     1     148.702 165.878 167.270  0.00  0.00    +0.000 C 
ATOM     10  C16 UNL     1     147.475 165.048 167.223  0.00  0.00    +0.000 A 
ATOM     11  C17 UNL     1     146.219 165.552 167.114  0.00  0.00    +0.000 A 
ATOM     12  C18 UNL     1     145.124 164.687 167.071  0.00  0.00    +0.000 A 
ATOM     13  C19 UNL     1     145.333 163.316 167.138  0.00  0.00    +0.000 A 
ATOM     14  C20 UNL     1     146.612 162.825 167.247  0.00  0.00    +0.000 A 
ATOM     15  C21 UNL     1     147.696 163.672 167.293  0.00  0.00    +0.000 A 
ATOM     16  H14 UNL     1     151.398 162.033 167.990  0.00  0.00    +0.000 HD
ENDROOT
BRANCH   1  20
ATOM     17  C5  UNL     1     154.704 158.923 170.174  0.00  0.00    +0.000 A 
ATOM     18  C6  UNL     1     154.409 160.265 170.347  0.00  0.00    +0.000 A 
ATOM     19  C7  UNL     1     153.149 160.749 170.038  0.00  0.00    +0.000 A 
ATOM     20  C8  UNL     1     152.158 159.911 169.551  0.00  0.00    +0.000 A 
ATOM     21  C9  UNL     1     152.490 158.576 169.389  0.00  0.00    +0.000 A 
ATOM     22  C10 UNL     1     153.745 158.059 169.691  0.00  0.00    +0.000 A 
BRANCH  17  24
ATOM     23  C1  UNL     1     156.386 158.680 171.931  0.00  0.00    +0.000 C 
ATOM     24  C2  UNL     1     156.042 158.372 170.493  0.00  0.00    +0.000 C 
ATOM     25  C3  UNL     1     155.984 156.843 170.386  0.00  0.00    +0.000 C 
ATOM     26  C4  UNL     1     157.142 158.929 169.620  0.00  0.00    +0.000 C 
ENDBRANCH  17  24
ENDBRANCH   1  20
TORSDOF 2
ENDMDL
MODEL 5
REMARK VINA RESULT:      -6.5      5.290      6.423
REMARK  Name = ./3D_structures\o28_MMV1782212_3D.pdb
REMARK  5 active torsions:
REMARK  status: ('A' for Active; 'I' for Inactive)
REMARK    1  A    between atoms: C1_1  and  C2_2
REMARK    2  A    between atoms: C2_2  and  C3_3
REMARK    3  A    between atoms: C2_2  and  C4_4
REMARK    4  A    between atoms: C2_2  and  C5_5
REMARK    5  A    between atoms: C8_8  and  C11_11
REMARK                            x       y       z     vdW  Elec       q    Type
REMARK                         _______ _______ _______ _____ _____    ______ ____
ROOT
ATOM      1  C11 UNL     1     153.383 161.393 165.446  0.00  0.00    +0.000 C 
ATOM      2  O1  UNL     1     153.391 162.133 164.417  0.00  0.00    +0.000 OA
ATOM      3  N1  UNL     1     152.427 161.668 166.459  0.00  0.00    +0.000 N 
ATOM      4  C12 UNL     1     151.434 162.708 166.277  0.00  0.00    +0.000 C 
ATOM      5  O2  UNL     1     151.512 163.338 165.182  0.00  0.00    +0.000 OA
ATOM      6  N2  UNL     1     150.476 162.951 167.282  0.00  0.00    +0.000 N 
ATOM      7  C13 UNL     1     150.482 162.217 168.510  0.00  0.00    +0.000 C 
ATOM      8  C14 UNL     1     149.145 162.340 169.234  0.00  0.00    +0.000 C 
ATOM      9  C15 UNL     1     147.995 162.520 168.260  0.00  0.00    +0.000 C 
ATOM     10  C16 UNL     1     148.198 163.773 167.494  0.00  0.00    +0.000 A 
ATOM     11  C17 UNL     1     147.225 164.692 167.264  0.00  0.00    +0.000 A 
ATOM     12  C18 UNL     1     147.517 165.846 166.536  0.00  0.00    +0.000 A 
ATOM     13  C19 UNL     1     148.803 166.043 166.054  0.00  0.00    +0.000 A 
ATOM     14  C20 UNL     1     149.776 165.103 166.298  0.00  0.00    +0.000 A 
ATOM     15  C21 UNL     1     149.495 163.961 167.013  0.00  0.00    +0.000 A 
ATOM     16  H14 UNL     1     152.430 161.104 167.319  0.00  0.00    +0.000 HD
ENDROOT
BRANCH   1  20
ATOM     17  C5  UNL     1     156.197 158.206 165.730  0.00  0.00    +0.000 A 
ATOM     18  C6  UNL     1     156.516 159.360 165.035  0.00  0.00    +0.000 A 
ATOM     19  C7  UNL     1     155.599 160.394 164.941  0.00  0.00    +0.000 A 
ATOM     20  C8  UNL     1     154.350 160.302 165.533  0.00  0.00    +0.000 A 
ATOM     21  C9  UNL     1     154.066 159.133 166.218  0.00  0.00    +0.000 A 
ATOM     22  C10 UNL     1     154.964 158.076 166.333  0.00  0.00    +0.000 A 
BRANCH  17  24
ATOM     23  C1  UNL     1     158.538 157.549 165.471  0.00  0.00    +0.000 C 
ATOM     24  C2  UNL     1     157.152 157.079 165.849  0.00  0.00    +0.000 C 
ATOM     25  C3  UNL     1     157.233 156.654 167.321  0.00  0.00    +0.000 C 
ATOM     26  C4  UNL     1     156.802 155.902 164.970  0.00  0.00    +0.000 C 
ENDBRANCH  17  24
ENDBRANCH   1  20
TORSDOF 2
ENDMDL
MODEL 6
REMARK VINA RESULT:      -6.5      1.665      2.760
REMARK  Name = ./3D_structures\o28_MMV1782212_3D.pdb
REMARK  5 active torsions:
REMARK  status: ('A' for Active; 'I' for Inactive)
REMARK    1  A    between atoms: C1_1  and  C2_2
REMARK    2  A    between atoms: C2_2  and  C3_3
REMARK    3  A    between atoms: C2_2  and  C4_4
REMARK    4  A    between atoms: C2_2  and  C5_5
REMARK    5  A    between atoms: C8_8  and  C11_11
REMARK                            x       y       z     vdW  Elec       q    Type
REMARK                         _______ _______ _______ _____ _____    ______ ____
ROOT
ATOM      1  C11 UNL     1     157.696 157.701 167.919  0.00  0.00    +0.000 C 
ATOM      2  O1  UNL     1     158.692 158.150 168.562  0.00  0.00    +0.000 OA
ATOM      3  N1  UNL     1     156.409 157.832 168.504  0.00  0.00    +0.000 N 
ATOM      4  C12 UNL     1     156.234 158.539 169.758  0.00  0.00    +0.000 C 
ATOM      5  O2  UNL     1     157.300 158.991 170.272  0.00  0.00    +0.000 OA
ATOM      6  N2  UNL     1     154.947 158.683 170.311  0.00  0.00    +0.000 N 
ATOM      7  C13 UNL     1     153.797 158.107 169.683  0.00  0.00    +0.000 C 
ATOM      8  C14 UNL     1     152.509 158.736 170.205  0.00  0.00    +0.000 C 
ATOM      9  C15 UNL     1     152.719 160.180 170.622  0.00  0.00    +0.000 C 
ATOM     10  C16 UNL     1     153.711 160.229 171.722  0.00  0.00    +0.000 A 
ATOM     11  C17 UNL     1     153.561 160.970 172.850  0.00  0.00    +0.000 A 
ATOM     12  C18 UNL     1     154.549 160.945 173.835  0.00  0.00    +0.000 A 
ATOM     13  C19 UNL     1     155.678 160.159 173.651  0.00  0.00    +0.000 A 
ATOM     14  C20 UNL     1     155.812 159.414 172.504  0.00  0.00    +0.000 A 
ATOM     15  C21 UNL     1     154.842 159.436 171.527  0.00  0.00    +0.000 A 
ATOM     16  H14 UNL     1     155.594 157.438 168.017  0.00  0.00    +0.000 HD
ENDROOT
BRANCH   1  20
ATOM     17  C5  UNL     1     158.345 155.859 164.132  0.00  0.00    +0.000 A 
ATOM     18  C6  UNL     1     159.374 156.532 164.768  0.00  0.00    +0.000 A 
ATOM     19  C7  UNL     1     159.162 157.133 165.997  0.00  0.00    +0.000 A 
ATOM     20  C8  UNL     1     157.925 157.078 166.619  0.00  0.00    +0.000 A 
ATOM     21  C9  UNL     1     156.919 156.397 165.953  0.00  0.00    +0.000 A 
ATOM     22  C10 UNL     1     157.100 155.782 164.718  0.00  0.00    +0.000 A 
BRANCH  17  24
ATOM     23  C1  UNL     1     157.694 153.953 162.745  0.00  0.00    +0.000 C 
ATOM     24  C2  UNL     1     158.537 155.206 162.816  0.00  0.00    +0.000 C 
ATOM     25  C3  UNL     1     158.007 156.138 161.720  0.00  0.00    +0.000 C 
ATOM     26  C4  UNL     1     159.971 154.820 162.543  0.00  0.00    +0.000 C 
ENDBRANCH  17  24
ENDBRANCH   1  20
TORSDOF 2
ENDMDL
MODEL 7
REMARK VINA RESULT:      -6.4      4.351      9.446
REMARK  Name = ./3D_structures\o28_MMV1782212_3D.pdb
REMARK  5 active torsions:
REMARK  status: ('A' for Active; 'I' for Inactive)
REMARK    1  A    between atoms: C1_1  and  C2_2
REMARK    2  A    between atoms: C2_2  and  C3_3
REMARK    3  A    between atoms: C2_2  and  C4_4
REMARK    4  A    between atoms: C2_2  and  C5_5
REMARK    5  A    between atoms: C8_8  and  C11_11
REMARK                            x       y       z     vdW  Elec       q    Type
REMARK                         _______ _______ _______ _____ _____    ______ ____
ROOT
ATOM      1  C11 UNL     1     151.266 161.191 168.571  0.00  0.00    +0.000 C 
ATOM      2  O1  UNL     1     151.736 160.814 167.456  0.00  0.00    +0.000 OA
ATOM      3  N1  UNL     1     151.994 160.867 169.746  0.00  0.00    +0.000 N 
ATOM      4  C12 UNL     1     153.280 160.204 169.661  0.00  0.00    +0.000 C 
ATOM      5  O2  UNL     1     153.666 159.931 168.487  0.00  0.00    +0.000 OA
ATOM      6  N2  UNL     1     154.001 159.913 170.836  0.00  0.00    +0.000 N 
ATOM      7  C13 UNL     1     153.473 160.222 172.130  0.00  0.00    +0.000 C 
ATOM      8  C14 UNL     1     154.570 160.218 173.190  0.00  0.00    +0.000 C 
ATOM      9  C15 UNL     1     155.912 160.622 172.609  0.00  0.00    +0.000 C 
ATOM     10  C16 UNL     1     156.305 159.645 171.565  0.00  0.00    +0.000 A 
ATOM     11  C17 UNL     1     157.545 159.103 171.456  0.00  0.00    +0.000 A 
ATOM     12  C18 UNL     1     157.816 158.185 170.441  0.00  0.00    +0.000 A 
ATOM     13  C19 UNL     1     156.810 157.833 169.551  0.00  0.00    +0.000 A 
ATOM     14  C20 UNL     1     155.560 158.391 169.677  0.00  0.00    +0.000 A 
ATOM     15  C21 UNL     1     155.287 159.299 170.675  0.00  0.00    +0.000 A 
ATOM     16  H14 UNL     1     151.609 161.130 170.662  0.00  0.00    +0.000 HD
ENDROOT
BRANCH   1  20
ATOM     17  C5  UNL     1     147.602 163.365 168.647  0.00  0.00    +0.000 A 
ATOM     18  C6  UNL     1     147.807 162.374 167.703  0.00  0.00    +0.000 A 
ATOM     19  C7  UNL     1     149.000 161.670 167.676  0.00  0.00    +0.000 A 
ATOM     20  C8  UNL     1     150.011 161.936 168.586  0.00  0.00    +0.000 A 
ATOM     21  C9  UNL     1     149.769 162.935 169.515  0.00  0.00    +0.000 A 
ATOM     22  C10 UNL     1     148.583 163.659 169.569  0.00  0.00    +0.000 A 
BRANCH  17  24
ATOM     23  C1  UNL     1     146.251 164.867 170.024  0.00  0.00    +0.000 C 
ATOM     24  C2  UNL     1     146.339 164.138 168.703  0.00  0.00    +0.000 C 
ATOM     25  C3  UNL     1     146.376 165.222 167.619  0.00  0.00    +0.000 C 
ATOM     26  C4  UNL     1     145.105 163.279 168.561  0.00  0.00    +0.000 C 
ENDBRANCH  17  24
ENDBRANCH   1  20
TORSDOF 2
ENDMDL
MODEL 8
REMARK VINA RESULT:      -6.4      4.129      9.555
REMARK  Name = ./3D_structures\o28_MMV1782212_3D.pdb
REMARK  5 active torsions:
REMARK  status: ('A' for Active; 'I' for Inactive)
REMARK    1  A    between atoms: C1_1  and  C2_2
REMARK    2  A    between atoms: C2_2  and  C3_3
REMARK    3  A    between atoms: C2_2  and  C4_4
REMARK    4  A    between atoms: C2_2  and  C5_5
REMARK    5  A    between atoms: C8_8  and  C11_11
REMARK                            x       y       z     vdW  Elec       q    Type
REMARK                         _______ _______ _______ _____ _____    ______ ____
ROOT
ATOM      1  C11 UNL     1     151.828 161.029 167.018  0.00  0.00    +0.000 C 
ATOM      2  O1  UNL     1     152.085 161.114 165.779  0.00  0.00    +0.000 OA
ATOM      3  N1  UNL     1     152.571 160.098 167.791  0.00  0.00    +0.000 N 
ATOM      4  C12 UNL     1     153.649 159.334 167.195  0.00  0.00    +0.000 C 
ATOM      5  O2  UNL     1     153.844 159.552 165.963  0.00  0.00    +0.000 OA
ATOM      6  N2  UNL     1     154.393 158.433 167.983  0.00  0.00    +0.000 N 
ATOM      7  C13 UNL     1     154.082 158.219 169.363  0.00  0.00    +0.000 C 
ATOM      8  C14 UNL     1     155.246 157.557 170.096  0.00  0.00    +0.000 C 
ATOM      9  C15 UNL     1     156.582 157.944 169.489  0.00  0.00    +0.000 C 
ATOM     10  C16 UNL     1     156.629 157.484 168.081  0.00  0.00    +0.000 A 
ATOM     11  C17 UNL     1     157.689 156.846 167.523  0.00  0.00    +0.000 A 
ATOM     12  C18 UNL     1     157.635 156.444 166.187  0.00  0.00    +0.000 A 
ATOM     13  C19 UNL     1     156.493 156.702 165.442  0.00  0.00    +0.000 A 
ATOM     14  C20 UNL     1     155.429 157.348 166.024  0.00  0.00    +0.000 A 
ATOM     15  C21 UNL     1     155.476 157.748 167.340  0.00  0.00    +0.000 A 
ATOM     16  H14 UNL     1     152.350 159.986 168.789  0.00  0.00    +0.000 HD
ENDROOT
BRANCH   1  20
ATOM     17  C5  UNL     1     148.822 163.550 168.679  0.00  0.00    +0.000 A 
ATOM     18  C6  UNL     1     148.497 162.287 168.215  0.00  0.00    +0.000 A 
ATOM     19  C7  UNL     1     149.474 161.469 167.672  0.00  0.00    +0.000 A 
ATOM     20  C8  UNL     1     150.791 161.890 167.580  0.00  0.00    +0.000 A 
ATOM     21  C9  UNL     1     151.078 163.159 168.053  0.00  0.00    +0.000 A 
ATOM     22  C10 UNL     1     150.121 164.004 168.605  0.00  0.00    +0.000 A 
BRANCH  17  24
ATOM     23  C1  UNL     1     147.117 165.225 168.161  0.00  0.00    +0.000 C 
ATOM     24  C2  UNL     1     147.802 164.452 169.264  0.00  0.00    +0.000 C 
ATOM     25  C3  UNL     1     146.712 163.600 169.927  0.00  0.00    +0.000 C 
ATOM     26  C4  UNL     1     148.375 165.447 170.245  0.00  0.00    +0.000 C 
ENDBRANCH  17  24
ENDBRANCH   1  20
TORSDOF 2
ENDMDL
MODEL 9
REMARK VINA RESULT:      -6.4      1.920      9.067
REMARK  Name = ./3D_structures\o28_MMV1782212_3D.pdb
REMARK  5 active torsions:
REMARK  status: ('A' for Active; 'I' for Inactive)
REMARK    1  A    between atoms: C1_1  and  C2_2
REMARK    2  A    between atoms: C2_2  and  C3_3
REMARK    3  A    between atoms: C2_2  and  C4_4
REMARK    4  A    between atoms: C2_2  and  C5_5
REMARK    5  A    between atoms: C8_8  and  C11_11
REMARK                            x       y       z     vdW  Elec       q    Type
REMARK                         _______ _______ _______ _____ _____    ______ ____
ROOT
ATOM      1  C11 UNL     1     156.061 157.546 168.015  0.00  0.00    +0.000 C 
ATOM      2  O1  UNL     1     155.053 156.887 167.619  0.00  0.00    +0.000 OA
ATOM      3  N1  UNL     1     157.267 157.431 167.274  0.00  0.00    +0.000 N 
ATOM      4  C12 UNL     1     157.313 156.653 166.052  0.00  0.00    +0.000 C 
ATOM      5  O2  UNL     1     156.225 156.090 165.733  0.00  0.00    +0.000 OA
ATOM      6  N2  UNL     1     158.512 156.571 165.315  0.00  0.00    +0.000 N 
ATOM      7  C13 UNL     1     159.710 157.209 165.768  0.00  0.00    +0.000 C 
ATOM      8  C14 UNL     1     160.725 157.345 164.636  0.00  0.00    +0.000 C 
ATOM      9  C15 UNL     1     160.044 157.487 163.287  0.00  0.00    +0.000 C 
ATOM     10  C16 UNL     1     159.243 156.269 163.016  0.00  0.00    +0.000 A 
ATOM     11  C17 UNL     1     159.239 155.608 161.830  0.00  0.00    +0.000 A 
ATOM     12  C18 UNL     1     158.455 154.464 161.674  0.00  0.00    +0.000 A 
ATOM     13  C19 UNL     1     157.685 154.013 162.738  0.00  0.00    +0.000 A 
ATOM     14  C20 UNL     1     157.702 154.695 163.931  0.00  0.00    +0.000 A 
ATOM     15  C21 UNL     1     158.472 155.825 164.091  0.00  0.00    +0.000 A 
ATOM     16  H14 UNL     1     158.106 157.927 167.602  0.00  0.00    +0.000 HD
ENDROOT
BRANCH   1  20
ATOM     17  C5  UNL     1     155.664 159.968 171.498  0.00  0.00    +0.000 A 
ATOM     18  C6  UNL     1     155.303 160.464 170.257  0.00  0.00    +0.000 A 
ATOM     19  C7  UNL     1     155.435 159.678 169.125  0.00  0.00    +0.000 A 
ATOM     20  C8  UNL     1     155.928 158.384 169.203  0.00  0.00    +0.000 A 
ATOM     21  C9  UNL     1     156.279 157.923 170.461  0.00  0.00    +0.000 A 
ATOM     22  C10 UNL     1     156.158 158.687 171.617  0.00  0.00    +0.000 A 
BRANCH  17  24
ATOM     23  C1  UNL     1     155.378 159.871 173.924  0.00  0.00    +0.000 C 
ATOM     24  C2  UNL     1     155.537 160.782 172.730  0.00  0.00    +0.000 C 
ATOM     25  C3  UNL     1     156.845 161.551 172.951  0.00  0.00    +0.000 C 
ATOM     26  C4  UNL     1     154.359 161.727 172.703  0.00  0.00    +0.000 C 
ENDBRANCH  17  24
ENDBRANCH   1  20
TORSDOF 2
ENDMDL
