MODEL 1
REMARK VINA RESULT:      -5.7      0.000      0.000
REMARK  Name = ./3D_structures\o29_MMV1782227_3D.pdb
REMARK  5 active torsions:
REMARK  status: ('A' for Active; 'I' for Inactive)
REMARK    1  A    between atoms: C4_5  and  N1_6
REMARK    2  A    between atoms: N1_6  and  C5_7
REMARK    3  A    between atoms: C5_7  and  N2_9
REMARK    4  A    between atoms: N2_9  and  N3_10
REMARK    5  A    between atoms: C6_11  and  C7_13
REMARK                            x       y       z     vdW  Elec       q    Type
REMARK                         _______ _______ _______ _____ _____    ______ ____
ROOT
ATOM      1  N2  UNL     1     156.551 155.942 165.217  0.00  0.00    +0.000 N 
ATOM      2  H4  UNL     1     155.549 155.776 164.982  0.00  0.00    +0.000 HD
ENDROOT
BRANCH   1   3
ATOM      3  N3  UNL     1     156.973 156.393 166.453  0.00  0.00    +0.000 N 
ATOM      4  C6  UNL     1     156.156 157.008 167.408  0.00  0.00    +0.000 C 
ATOM      5  O1  UNL     1     154.934 157.156 167.096  0.00  0.00    +0.000 OA
ATOM      6  H5  UNL     1     157.989 156.249 166.666  0.00  0.00    +0.000 HD
BRANCH   4   7
ATOM      7  C7  UNL     1     156.664 157.462 168.698  0.00  0.00    +0.000 A 
ATOM      8  C8  UNL     1     155.935 157.383 169.854  0.00  0.00    +0.000 A 
ATOM      9  C9  UNL     1     156.437 157.825 171.089  0.00  0.00    +0.000 A 
ATOM     10  N4  UNL     1     157.665 158.328 171.092  0.00  0.00    +0.000 NA
ATOM     11  C10 UNL     1     158.417 158.426 169.983  0.00  0.00    +0.000 A 
ATOM     12  C11 UNL     1     157.942 157.999 168.771  0.00  0.00    +0.000 A 
ENDBRANCH   4   7
ENDBRANCH   1   3
BRANCH   1  13
ATOM     13  C5  UNL     1     157.568 155.693 164.208  0.00  0.00    +0.000 C 
ATOM     14  S1  UNL     1     158.825 156.704 164.180  0.00  0.00    +0.000 S 
BRANCH  13  15
ATOM     15  N1  UNL     1     157.399 154.627 163.297  0.00  0.00    +0.000 N 
ATOM     16  H3  UNL     1     157.063 154.914 162.322  0.00  0.00    +0.000 HD
BRANCH  15  21
ATOM     17 CL1  UNL     1     158.132 148.914 164.555  0.00  0.00    +0.000 Cl
ATOM     18  C1  UNL     1     157.947 150.626 164.197  0.00  0.00    +0.000 A 
ATOM     19  C2  UNL     1     156.988 151.012 163.279  0.00  0.00    +0.000 A 
ATOM     20  C3  UNL     1     156.825 152.348 162.982  0.00  0.00    +0.000 A 
ATOM     21  C4  UNL     1     157.642 153.297 163.620  0.00  0.00    +0.000 A 
ATOM     22  C12 UNL     1     158.584 152.916 164.522  0.00  0.00    +0.000 A 
ATOM     23  C13 UNL     1     158.748 151.554 164.823  0.00  0.00    +0.000 A 
ENDBRANCH  15  21
ENDBRANCH  13  15
ENDBRANCH   1  13
TORSDOF 5
ENDMDL
MODEL 2
REMARK VINA RESULT:      -5.6      4.824      6.616
REMARK  Name = ./3D_structures\o29_MMV1782227_3D.pdb
REMARK  5 active torsions:
REMARK  status: ('A' for Active; 'I' for Inactive)
REMARK    1  A    between atoms: C4_5  and  N1_6
REMARK    2  A    between atoms: N1_6  and  C5_7
REMARK    3  A    between atoms: C5_7  and  N2_9
REMARK    4  A    between atoms: N2_9  and  N3_10
REMARK    5  A    between atoms: C6_11  and  C7_13
REMARK                            x       y       z     vdW  Elec       q    Type
REMARK                         _______ _______ _______ _____ _____    ______ ____
ROOT
ATOM      1  N2  UNL     1     157.339 158.160 165.231  0.00  0.00    +0.000 N 
ATOM      2  H4  UNL     1     157.518 157.957 164.224  0.00  0.00    +0.000 HD
ENDROOT
BRANCH   1   3
ATOM      3  N3  UNL     1     156.290 158.945 165.669  0.00  0.00    +0.000 N 
ATOM      4  C6  UNL     1     155.018 158.473 166.009  0.00  0.00    +0.000 C 
ATOM      5  O1  UNL     1     154.831 157.221 165.897  0.00  0.00    +0.000 OA
ATOM      6  H5  UNL     1     156.492 159.970 165.745  0.00  0.00    +0.000 HD
BRANCH   4   7
ATOM      7  C7  UNL     1     153.951 159.355 166.467  0.00  0.00    +0.000 A 
ATOM      8  C8  UNL     1     153.314 160.243 165.642  0.00  0.00    +0.000 A 
ATOM      9  C9  UNL     1     152.289 161.088 166.098  0.00  0.00    +0.000 A 
ATOM     10  N4  UNL     1     151.955 160.990 167.379  0.00  0.00    +0.000 NA
ATOM     11  C10 UNL     1     152.552 160.133 168.225  0.00  0.00    +0.000 A 
ATOM     12  C11 UNL     1     153.554 159.302 167.796  0.00  0.00    +0.000 A 
ENDBRANCH   4   7
ENDBRANCH   1   3
BRANCH   1  13
ATOM     13  C5  UNL     1     158.227 157.598 166.236  0.00  0.00    +0.000 C 
ATOM     14  S1  UNL     1     159.806 157.870 166.044  0.00  0.00    +0.000 S 
BRANCH  13  15
ATOM     15  N1  UNL     1     157.687 156.830 167.291  0.00  0.00    +0.000 N 
ATOM     16  H3  UNL     1     157.496 155.804 167.053  0.00  0.00    +0.000 HD
BRANCH  15  21
ATOM     17 CL1  UNL     1     156.208 158.950 172.591  0.00  0.00    +0.000 Cl
ATOM     18  C1  UNL     1     156.684 158.329 171.016  0.00  0.00    +0.000 A 
ATOM     19  C2  UNL     1     155.837 157.454 170.362  0.00  0.00    +0.000 A 
ATOM     20  C3  UNL     1     156.191 156.955 169.127  0.00  0.00    +0.000 A 
ATOM     21  C4  UNL     1     157.413 157.347 168.553  0.00  0.00    +0.000 A 
ATOM     22  C12 UNL     1     158.244 158.207 169.196  0.00  0.00    +0.000 A 
ATOM     23  C13 UNL     1     157.881 158.714 170.455  0.00  0.00    +0.000 A 
ENDBRANCH  15  21
ENDBRANCH  13  15
ENDBRANCH   1  13
TORSDOF 5
ENDMDL
MODEL 3
REMARK VINA RESULT:      -5.6     12.211     13.918
REMARK  Name = ./3D_structures\o29_MMV1782227_3D.pdb
REMARK  5 active torsions:
REMARK  status: ('A' for Active; 'I' for Inactive)
REMARK    1  A    between atoms: C4_5  and  N1_6
REMARK    2  A    between atoms: N1_6  and  C5_7
REMARK    3  A    between atoms: C5_7  and  N2_9
REMARK    4  A    between atoms: N2_9  and  N3_10
REMARK    5  A    between atoms: C6_11  and  C7_13
REMARK                            x       y       z     vdW  Elec       q    Type
REMARK                         _______ _______ _______ _____ _____    ______ ____
ROOT
ATOM      1  N2  UNL     1     148.964 166.146 165.706  0.00  0.00    +0.000 N 
ATOM      2  H4  UNL     1     148.937 166.979 165.081  0.00  0.00    +0.000 HD
ENDROOT
BRANCH   1   3
ATOM      3  N3  UNL     1     147.842 165.409 166.035  0.00  0.00    +0.000 N 
ATOM      4  C6  UNL     1     146.538 165.913 166.099  0.00  0.00    +0.000 C 
ATOM      5  O1  UNL     1     146.395 167.147 165.833  0.00  0.00    +0.000 OA
ATOM      6  H5  UNL     1     148.010 164.397 166.246  0.00  0.00    +0.000 HD
BRANCH   4   7
ATOM      7  C7  UNL     1     145.394 165.081 166.452  0.00  0.00    +0.000 A 
ATOM      8  C8  UNL     1     144.272 164.989 165.673  0.00  0.00    +0.000 A 
ATOM      9  C9  UNL     1     143.177 164.184 166.026  0.00  0.00    +0.000 A 
ATOM     10  N4  UNL     1     143.273 163.505 167.162  0.00  0.00    +0.000 NA
ATOM     11  C10 UNL     1     144.354 163.563 167.959  0.00  0.00    +0.000 A 
ATOM     12  C11 UNL     1     145.430 164.344 167.628  0.00  0.00    +0.000 A 
ENDBRANCH   4   7
ENDBRANCH   1   3
BRANCH   1  13
ATOM     13  C5  UNL     1     150.236 165.723 166.270  0.00  0.00    +0.000 C 
ATOM     14  S1  UNL     1     150.176 164.639 167.464  0.00  0.00    +0.000 S 
BRANCH  13  15
ATOM     15  N1  UNL     1     151.436 166.290 165.785  0.00  0.00    +0.000 N 
ATOM     16  H3  UNL     1     151.599 167.311 166.063  0.00  0.00    +0.000 HD
BRANCH  15  21
ATOM     17 CL1  UNL     1     155.491 163.615 162.444  0.00  0.00    +0.000 Cl
ATOM     18  C1  UNL     1     154.261 164.382 163.439  0.00  0.00    +0.000 A 
ATOM     19  C2  UNL     1     154.583 165.542 164.118  0.00  0.00    +0.000 A 
ATOM     20  C3  UNL     1     153.634 166.159 164.904  0.00  0.00    +0.000 A 
ATOM     21  C4  UNL     1     152.350 165.594 165.002  0.00  0.00    +0.000 A 
ATOM     22  C12 UNL     1     152.035 164.454 164.334  0.00  0.00    +0.000 A 
ATOM     23  C13 UNL     1     153.004 163.827 163.534  0.00  0.00    +0.000 A 
ENDBRANCH  15  21
ENDBRANCH  13  15
ENDBRANCH   1  13
TORSDOF 5
ENDMDL
MODEL 4
REMARK VINA RESULT:      -5.4     10.815     12.293
REMARK  Name = ./3D_structures\o29_MMV1782227_3D.pdb
REMARK  5 active torsions:
REMARK  status: ('A' for Active; 'I' for Inactive)
REMARK    1  A    between atoms: C4_5  and  N1_6
REMARK    2  A    between atoms: N1_6  and  C5_7
REMARK    3  A    between atoms: C5_7  and  N2_9
REMARK    4  A    between atoms: N2_9  and  N3_10
REMARK    5  A    between atoms: C6_11  and  C7_13
REMARK                            x       y       z     vdW  Elec       q    Type
REMARK                         _______ _______ _______ _____ _____    ______ ____
ROOT
ATOM      1  N2  UNL     1     150.598 164.971 166.145  0.00  0.00    +0.000 N 
ATOM      2  H4  UNL     1     150.906 164.585 167.063  0.00  0.00    +0.000 HD
ENDROOT
BRANCH   1   3
ATOM      3  N3  UNL     1     149.317 165.436 165.912  0.00  0.00    +0.000 N 
ATOM      4  C6  UNL     1     148.149 164.884 166.449  0.00  0.00    +0.000 C 
ATOM      5  O1  UNL     1     148.298 163.876 167.209  0.00  0.00    +0.000 OA
ATOM      6  H5  UNL     1     149.245 166.268 165.280  0.00  0.00    +0.000 HD
BRANCH   4   7
ATOM      7  C7  UNL     1     146.825 165.423 166.164  0.00  0.00    +0.000 A 
ATOM      8  C8  UNL     1     146.609 166.737 165.843  0.00  0.00    +0.000 A 
ATOM      9  C9  UNL     1     145.328 167.242 165.571  0.00  0.00    +0.000 A 
ATOM     10  N4  UNL     1     144.318 166.384 165.637  0.00  0.00    +0.000 NA
ATOM     11  C10 UNL     1     144.481 165.086 165.948  0.00  0.00    +0.000 A 
ATOM     12  C11 UNL     1     145.725 164.578 166.216  0.00  0.00    +0.000 A 
ENDBRANCH   4   7
ENDBRANCH   1   3
BRANCH   1  13
ATOM     13  C5  UNL     1     151.547 165.031 165.046  0.00  0.00    +0.000 C 
ATOM     14  S1  UNL     1     152.290 166.443 164.804  0.00  0.00    +0.000 S 
BRANCH  13  15
ATOM     15  N1  UNL     1     151.748 163.891 164.236  0.00  0.00    +0.000 N 
ATOM     16  H3  UNL     1     151.277 163.930 163.275  0.00  0.00    +0.000 HD
BRANCH  15  21
ATOM     17 CL1  UNL     1     155.178 159.349 165.774  0.00  0.00    +0.000 Cl
ATOM     18  C1  UNL     1     154.125 160.686 165.331  0.00  0.00    +0.000 A 
ATOM     19  C2  UNL     1     154.698 161.885 164.951  0.00  0.00    +0.000 A 
ATOM     20  C3  UNL     1     153.893 162.947 164.601  0.00  0.00    +0.000 A 
ATOM     21  C4  UNL     1     152.496 162.790 164.636  0.00  0.00    +0.000 A 
ATOM     22  C12 UNL     1     151.934 161.610 165.009  0.00  0.00    +0.000 A 
ATOM     23  C13 UNL     1     152.758 160.531 165.367  0.00  0.00    +0.000 A 
ENDBRANCH  15  21
ENDBRANCH  13  15
ENDBRANCH   1  13
TORSDOF 5
ENDMDL
MODEL 5
REMARK VINA RESULT:      -5.3      3.528      7.231
REMARK  Name = ./3D_structures\o29_MMV1782227_3D.pdb
REMARK  5 active torsions:
REMARK  status: ('A' for Active; 'I' for Inactive)
REMARK    1  A    between atoms: C4_5  and  N1_6
REMARK    2  A    between atoms: N1_6  and  C5_7
REMARK    3  A    between atoms: C5_7  and  N2_9
REMARK    4  A    between atoms: N2_9  and  N3_10
REMARK    5  A    between atoms: C6_11  and  C7_13
REMARK                            x       y       z     vdW  Elec       q    Type
REMARK                         _______ _______ _______ _____ _____    ______ ____
ROOT
ATOM      1  N2  UNL     1     158.863 155.703 163.780  0.00  0.00    +0.000 N 
ATOM      2  H4  UNL     1     159.384 155.988 162.923  0.00  0.00    +0.000 HD
ENDROOT
BRANCH   1   3
ATOM      3  N3  UNL     1     158.252 154.471 163.919  0.00  0.00    +0.000 N 
ATOM      4  C6  UNL     1     158.910 153.276 164.227  0.00  0.00    +0.000 C 
ATOM      5  O1  UNL     1     160.169 153.348 164.388  0.00  0.00    +0.000 OA
ATOM      6  H5  UNL     1     157.214 154.461 163.778  0.00  0.00    +0.000 HD
BRANCH   4   7
ATOM      7  C7  UNL     1     158.206 152.006 164.361  0.00  0.00    +0.000 A 
ATOM      8  C8  UNL     1     156.930 151.811 163.905  0.00  0.00    +0.000 A 
ATOM      9  C9  UNL     1     156.265 150.582 164.042  0.00  0.00    +0.000 A 
ATOM     10  N4  UNL     1     156.930 149.601 164.639  0.00  0.00    +0.000 NA
ATOM     11  C10 UNL     1     158.184 149.747 165.102  0.00  0.00    +0.000 A 
ATOM     12  C11 UNL     1     158.847 150.939 164.977  0.00  0.00    +0.000 A 
ENDBRANCH   4   7
ENDBRANCH   1   3
BRANCH   1  13
ATOM     13  C5  UNL     1     158.763 156.634 164.892  0.00  0.00    +0.000 C 
ATOM     14  S1  UNL     1     159.380 158.107 164.663  0.00  0.00    +0.000 S 
BRANCH  13  15
ATOM     15  N1  UNL     1     158.175 156.210 166.104  0.00  0.00    +0.000 N 
ATOM     16  H3  UNL     1     158.684 155.407 166.597  0.00  0.00    +0.000 HD
BRANCH  15  21
ATOM     17 CL1  UNL     1     153.353 158.457 168.646  0.00  0.00    +0.000 Cl
ATOM     18  C1  UNL     1     154.781 157.803 167.855  0.00  0.00    +0.000 A 
ATOM     19  C2  UNL     1     155.810 157.315 168.639  0.00  0.00    +0.000 A 
ATOM     20  C3  UNL     1     156.939 156.799 168.040  0.00  0.00    +0.000 A 
ATOM     21  C4  UNL     1     157.023 156.777 166.637  0.00  0.00    +0.000 A 
ATOM     22  C12 UNL     1     156.011 157.256 165.868  0.00  0.00    +0.000 A 
ATOM     23  C13 UNL     1     154.862 157.782 166.481  0.00  0.00    +0.000 A 
ENDBRANCH  15  21
ENDBRANCH  13  15
ENDBRANCH   1  13
TORSDOF 5
ENDMDL
MODEL 6
REMARK VINA RESULT:      -5.3     11.204     13.710
REMARK  Name = ./3D_structures\o29_MMV1782227_3D.pdb
REMARK  5 active torsions:
REMARK  status: ('A' for Active; 'I' for Inactive)
REMARK    1  A    between atoms: C4_5  and  N1_6
REMARK    2  A    between atoms: N1_6  and  C5_7
REMARK    3  A    between atoms: C5_7  and  N2_9
REMARK    4  A    between atoms: N2_9  and  N3_10
REMARK    5  A    between atoms: C6_11  and  C7_13
REMARK                            x       y       z     vdW  Elec       q    Type
REMARK                         _______ _______ _______ _____ _____    ______ ____
ROOT
ATOM      1  N2  UNL     1     161.659 143.131 172.043  0.00  0.00    +0.000 N 
ATOM      2  H4  UNL     1     161.617 142.319 172.695  0.00  0.00    +0.000 HD
ENDROOT
BRANCH   1   3
ATOM      3  N3  UNL     1     161.177 143.087 170.749  0.00  0.00    +0.000 N 
ATOM      4  C6  UNL     1     161.890 142.621 169.639  0.00  0.00    +0.000 C 
ATOM      5  O1  UNL     1     163.073 142.212 169.858  0.00  0.00    +0.000 OA
ATOM      6  H5  UNL     1     160.197 143.434 170.618  0.00  0.00    +0.000 HD
BRANCH   4   7
ATOM      7  C7  UNL     1     161.322 142.600 168.296  0.00  0.00    +0.000 A 
ATOM      8  C8  UNL     1     161.675 141.672 167.353  0.00  0.00    +0.000 A 
ATOM      9  C9  UNL     1     161.121 141.664 166.063  0.00  0.00    +0.000 A 
ATOM     10  N4  UNL     1     160.226 142.605 165.789  0.00  0.00    +0.000 NA
ATOM     11  C10 UNL     1     159.847 143.535 166.682  0.00  0.00    +0.000 A 
ATOM     12  C11 UNL     1     160.380 143.556 167.945  0.00  0.00    +0.000 A 
ENDBRANCH   4   7
ENDBRANCH   1   3
BRANCH   1  13
ATOM     13  C5  UNL     1     162.251 144.379 172.499  0.00  0.00    +0.000 C 
ATOM     14  S1  UNL     1     161.745 144.943 173.924  0.00  0.00    +0.000 S 
BRANCH  13  15
ATOM     15  N1  UNL     1     163.191 145.043 171.682  0.00  0.00    +0.000 N 
ATOM     16  H3  UNL     1     164.215 144.800 171.881  0.00  0.00    +0.000 HD
BRANCH  15  21
ATOM     17 CL1  UNL     1     161.411 148.935 167.627  0.00  0.00    +0.000 Cl
ATOM     18  C1  UNL     1     161.973 147.767 168.815  0.00  0.00    +0.000 A 
ATOM     19  C2  UNL     1     161.390 147.762 170.069  0.00  0.00    +0.000 A 
ATOM     20  C3  UNL     1     161.815 146.856 171.017  0.00  0.00    +0.000 A 
ATOM     21  C4  UNL     1     162.838 145.949 170.689  0.00  0.00    +0.000 A 
ATOM     22  C12 UNL     1     163.410 145.955 169.456  0.00  0.00    +0.000 A 
ATOM     23  C13 UNL     1     162.975 146.880 168.493  0.00  0.00    +0.000 A 
ENDBRANCH  15  21
ENDBRANCH  13  15
ENDBRANCH   1  13
TORSDOF 5
ENDMDL
MODEL 7
REMARK VINA RESULT:      -5.3     10.779     12.397
REMARK  Name = ./3D_structures\o29_MMV1782227_3D.pdb
REMARK  5 active torsions:
REMARK  status: ('A' for Active; 'I' for Inactive)
REMARK    1  A    between atoms: C4_5  and  N1_6
REMARK    2  A    between atoms: N1_6  and  C5_7
REMARK    3  A    between atoms: C5_7  and  N2_9
REMARK    4  A    between atoms: N2_9  and  N3_10
REMARK    5  A    between atoms: C6_11  and  C7_13
REMARK                            x       y       z     vdW  Elec       q    Type
REMARK                         _______ _______ _______ _____ _____    ______ ____
ROOT
ATOM      1  N2  UNL     1     150.974 166.263 165.858  0.00  0.00    +0.000 N 
ATOM      2  H4  UNL     1     151.330 167.015 166.485  0.00  0.00    +0.000 HD
ENDROOT
BRANCH   1   3
ATOM      3  N3  UNL     1     149.630 166.059 165.608  0.00  0.00    +0.000 N 
ATOM      4  C6  UNL     1     148.651 165.853 166.586  0.00  0.00    +0.000 C 
ATOM      5  O1  UNL     1     149.048 165.855 167.793  0.00  0.00    +0.000 OA
ATOM      6  H5  UNL     1     149.351 166.065 164.598  0.00  0.00    +0.000 HD
BRANCH   4   7
ATOM      7  C7  UNL     1     147.246 165.644 166.256  0.00  0.00    +0.000 A 
ATOM      8  C8  UNL     1     146.644 164.416 166.307  0.00  0.00    +0.000 A 
ATOM      9  C9  UNL     1     145.290 164.230 165.986  0.00  0.00    +0.000 A 
ATOM     10  N4  UNL     1     144.605 165.308 165.626  0.00  0.00    +0.000 NA
ATOM     11  C10 UNL     1     145.153 166.533 165.561  0.00  0.00    +0.000 A 
ATOM     12  C11 UNL     1     146.473 166.731 165.871  0.00  0.00    +0.000 A 
ENDBRANCH   4   7
ENDBRANCH   1   3
BRANCH   1  13
ATOM     13  C5  UNL     1     151.923 165.374 165.206  0.00  0.00    +0.000 C 
ATOM     14  S1  UNL     1     153.407 165.956 164.955  0.00  0.00    +0.000 S 
BRANCH  13  15
ATOM     15  N1  UNL     1     151.506 164.087 164.800  0.00  0.00    +0.000 N 
ATOM     16  H3  UNL     1     150.822 164.072 163.976  0.00  0.00    +0.000 HD
BRANCH  15  21
ATOM     17 CL1  UNL     1     153.389 159.289 167.662  0.00  0.00    +0.000 Cl
ATOM     18  C1  UNL     1     152.825 160.699 166.777  0.00  0.00    +0.000 A 
ATOM     19  C2  UNL     1     152.405 161.807 167.490  0.00  0.00    +0.000 A 
ATOM     20  C3  UNL     1     151.958 162.923 166.816  0.00  0.00    +0.000 A 
ATOM     21  C4  UNL     1     151.937 162.914 165.411  0.00  0.00    +0.000 A 
ATOM     22  C12 UNL     1     152.350 161.826 164.712  0.00  0.00    +0.000 A 
ATOM     23  C13 UNL     1     152.804 160.689 165.400  0.00  0.00    +0.000 A 
ENDBRANCH  15  21
ENDBRANCH  13  15
ENDBRANCH   1  13
TORSDOF 5
ENDMDL
MODEL 8
REMARK VINA RESULT:      -5.3     12.796     15.096
REMARK  Name = ./3D_structures\o29_MMV1782227_3D.pdb
REMARK  5 active torsions:
REMARK  status: ('A' for Active; 'I' for Inactive)
REMARK    1  A    between atoms: C4_5  and  N1_6
REMARK    2  A    between atoms: N1_6  and  C5_7
REMARK    3  A    between atoms: C5_7  and  N2_9
REMARK    4  A    between atoms: N2_9  and  N3_10
REMARK    5  A    between atoms: C6_11  and  C7_13
REMARK                            x       y       z     vdW  Elec       q    Type
REMARK                         _______ _______ _______ _____ _____    ______ ____
ROOT
ATOM      1  N2  UNL     1     147.245 161.861 167.322  0.00  0.00    +0.000 N 
ATOM      2  H4  UNL     1     146.850 160.897 167.332  0.00  0.00    +0.000 HD
ENDROOT
BRANCH   1   3
ATOM      3  N3  UNL     1     146.621 162.927 166.703  0.00  0.00    +0.000 N 
ATOM      4  C6  UNL     1     145.731 163.811 167.322  0.00  0.00    +0.000 C 
ATOM      5  O1  UNL     1     145.489 163.600 168.552  0.00  0.00    +0.000 OA
ATOM      6  H5  UNL     1     146.852 163.061 165.689  0.00  0.00    +0.000 HD
BRANCH   4   7
ATOM      7  C7  UNL     1     145.106 164.920 166.612  0.00  0.00    +0.000 A 
ATOM      8  C8  UNL     1     143.841 164.853 166.093  0.00  0.00    +0.000 A 
ATOM      9  C9  UNL     1     143.252 165.929 165.409  0.00  0.00    +0.000 A 
ATOM     10  N4  UNL     1     143.979 167.032 165.285  0.00  0.00    +0.000 NA
ATOM     11  C10 UNL     1     145.225 167.144 165.779  0.00  0.00    +0.000 A 
ATOM     12  C11 UNL     1     145.813 166.103 166.447  0.00  0.00    +0.000 A 
ENDBRANCH   4   7
ENDBRANCH   1   3
BRANCH   1  13
ATOM     13  C5  UNL     1     148.512 162.116 167.988  0.00  0.00    +0.000 C 
ATOM     14  S1  UNL     1     149.818 161.407 167.358  0.00  0.00    +0.000 S 
BRANCH  13  15
ATOM     15  N1  UNL     1     148.541 162.924 169.146  0.00  0.00    +0.000 N 
ATOM     16  H3  UNL     1     148.045 162.508 169.999  0.00  0.00    +0.000 HD
BRANCH  15  21
ATOM     17 CL1  UNL     1     151.174 168.197 169.037  0.00  0.00    +0.000 Cl
ATOM     18  C1  UNL     1     150.391 166.624 169.108  0.00  0.00    +0.000 A 
ATOM     19  C2  UNL     1     149.741 166.155 167.981  0.00  0.00    +0.000 A 
ATOM     20  C3  UNL     1     149.120 164.925 168.014  0.00  0.00    +0.000 A 
ATOM     21  C4  UNL     1     149.159 164.168 169.198  0.00  0.00    +0.000 A 
ATOM     22  C12 UNL     1     149.798 164.630 170.304  0.00  0.00    +0.000 A 
ATOM     23  C13 UNL     1     150.430 165.884 170.268  0.00  0.00    +0.000 A 
ENDBRANCH  15  21
ENDBRANCH  13  15
ENDBRANCH   1  13
TORSDOF 5
ENDMDL
MODEL 9
REMARK VINA RESULT:      -5.2      2.284      3.235
REMARK  Name = ./3D_structures\o29_MMV1782227_3D.pdb
REMARK  5 active torsions:
REMARK  status: ('A' for Active; 'I' for Inactive)
REMARK    1  A    between atoms: C4_5  and  N1_6
REMARK    2  A    between atoms: N1_6  and  C5_7
REMARK    3  A    between atoms: C5_7  and  N2_9
REMARK    4  A    between atoms: N2_9  and  N3_10
REMARK    5  A    between atoms: C6_11  and  C7_13
REMARK                            x       y       z     vdW  Elec       q    Type
REMARK                         _______ _______ _______ _____ _____    ______ ____
ROOT
ATOM      1  N2  UNL     1     157.346 154.713 163.658  0.00  0.00    +0.000 N 
ATOM      2  H4  UNL     1     157.641 155.142 162.755  0.00  0.00    +0.000 HD
ENDROOT
BRANCH   1   3
ATOM      3  N3  UNL     1     156.676 155.412 164.644  0.00  0.00    +0.000 N 
ATOM      4  C6  UNL     1     157.286 156.141 165.670  0.00  0.00    +0.000 C 
ATOM      5  O1  UNL     1     158.556 156.149 165.680  0.00  0.00    +0.000 OA
ATOM      6  H5  UNL     1     155.630 155.376 164.594  0.00  0.00    +0.000 HD
BRANCH   4   7
ATOM      7  C7  UNL     1     156.521 156.859 166.682  0.00  0.00    +0.000 A 
ATOM      8  C8  UNL     1     156.888 156.904 168.000  0.00  0.00    +0.000 A 
ATOM      9  C9  UNL     1     156.140 157.599 168.965  0.00  0.00    +0.000 A 
ATOM     10  N4  UNL     1     155.047 158.222 168.542  0.00  0.00    +0.000 NA
ATOM     11  C10 UNL     1     154.648 158.207 167.259  0.00  0.00    +0.000 A 
ATOM     12  C11 UNL     1     155.366 157.533 166.307  0.00  0.00    +0.000 A 
ENDBRANCH   4   7
ENDBRANCH   1   3
BRANCH   1  13
ATOM     13  C5  UNL     1     157.646 153.313 163.909  0.00  0.00    +0.000 C 
ATOM     14  S1  UNL     1     159.200 152.884 163.862  0.00  0.00    +0.000 S 
BRANCH  13  15
ATOM     15  N1  UNL     1     156.589 152.405 164.145  0.00  0.00    +0.000 N 
ATOM     16  H3  UNL     1     156.001 152.612 165.016  0.00  0.00    +0.000 HD
BRANCH  15  21
ATOM     17 CL1  UNL     1     155.640 147.622 160.832  0.00  0.00    +0.000 Cl
ATOM     18  C1  UNL     1     155.901 149.068 161.797  0.00  0.00    +0.000 A 
ATOM     19  C2  UNL     1     156.450 148.936 163.058  0.00  0.00    +0.000 A 
ATOM     20  C3  UNL     1     156.663 150.056 163.833  0.00  0.00    +0.000 A 
ATOM     21  C4  UNL     1     156.315 151.319 163.322  0.00  0.00    +0.000 A 
ATOM     22  C12 UNL     1     155.775 151.448 162.082  0.00  0.00    +0.000 A 
ATOM     23  C13 UNL     1     155.559 150.305 161.296  0.00  0.00    +0.000 A 
ENDBRANCH  15  21
ENDBRANCH  13  15
ENDBRANCH   1  13
TORSDOF 5
ENDMDL
