MODEL 1
REMARK VINA RESULT:      -5.8      0.000      0.000
REMARK  Name = ./3D_structures\o2_MMV1782108_3D.pdb
REMARK  7 active torsions:
REMARK  status: ('A' for Active; 'I' for Inactive)
REMARK    1  A    between atoms: S1_1  and  N1_4
REMARK    2  A    between atoms: S1_1  and  C5_11
REMARK    3  A    between atoms: C2_8  and  C4_10
REMARK    4  A    between atoms: C8_14  and  C9_15
REMARK    5  A    between atoms: C9_15  and  C10_16
REMARK    6  A    between atoms: C10_16  and  C11_17
REMARK    7  A    between atoms: C11_17  and  C12_18
REMARK                            x       y       z     vdW  Elec       q    Type
REMARK                         _______ _______ _______ _____ _____    ______ ____
ROOT
ATOM      1  S1  UNL     1     157.088 157.447 165.680  0.00  0.00    +0.000 S 
ATOM      2  O1  UNL     1     156.393 156.178 166.096  0.00  0.00    +0.000 OA
ATOM      3  O2  UNL     1     157.595 157.338 164.267  0.00  0.00    +0.000 OA
ENDROOT
BRANCH   1   4
ATOM      4  N1  UNL     1     158.362 157.783 166.767  0.00  0.00    +0.000 N 
ATOM      5  C1  UNL     1     158.212 157.939 168.157  0.00  0.00    +0.000 A 
ATOM      6  N2  UNL     1     159.208 158.189 169.054  0.00  0.00    +0.000 NA
ATOM      7  O3  UNL     1     158.728 158.293 170.248  0.00  0.00    +0.000 OA
ATOM      8  C2  UNL     1     157.433 158.126 170.233  0.00  0.00    +0.000 A 
ATOM      9  C3  UNL     1     157.078 157.896 168.897  0.00  0.00    +0.000 A 
ATOM     10  C4  UNL     1     156.430 158.149 171.325  0.00  0.00    +0.000 C 
ATOM     11  H1  UNL     1     159.365 157.891 166.399  0.00  0.00    +0.000 HD
ENDBRANCH   1   4
BRANCH   1  12
ATOM     12  C5  UNL     1     155.922 158.752 165.691  0.00  0.00    +0.000 A 
ATOM     13  C6  UNL     1     154.621 158.527 166.166  0.00  0.00    +0.000 A 
ATOM     14  C7  UNL     1     153.679 159.528 166.165  0.00  0.00    +0.000 A 
ATOM     15  C8  UNL     1     153.942 160.802 165.706  0.00  0.00    +0.000 A 
ATOM     16  C13 UNL     1     155.221 161.019 165.241  0.00  0.00    +0.000 A 
ATOM     17  C14 UNL     1     156.179 160.024 165.235  0.00  0.00    +0.000 A 
BRANCH  15  18
ATOM     18  C9  UNL     1     152.903 161.849 165.723  0.00  0.00    +0.000 C 
BRANCH  18  19
ATOM     19  C10 UNL     1     152.250 162.056 164.393  0.00  0.00    +0.000 C 
BRANCH  19  20
ATOM     20  C11 UNL     1     152.314 163.450 163.867  0.00  0.00    +0.000 C 
ATOM     21  C12 UNL     1     153.670 163.888 163.420  0.00  0.00    +0.000 C 
ENDBRANCH  19  20
ENDBRANCH  18  19
ENDBRANCH  15  18
ENDBRANCH   1  12
TORSDOF 5
ENDMDL
MODEL 2
REMARK VINA RESULT:      -5.5      2.150      6.021
REMARK  Name = ./3D_structures\o2_MMV1782108_3D.pdb
REMARK  7 active torsions:
REMARK  status: ('A' for Active; 'I' for Inactive)
REMARK    1  A    between atoms: S1_1  and  N1_4
REMARK    2  A    between atoms: S1_1  and  C5_11
REMARK    3  A    between atoms: C2_8  and  C4_10
REMARK    4  A    between atoms: C8_14  and  C9_15
REMARK    5  A    between atoms: C9_15  and  C10_16
REMARK    6  A    between atoms: C10_16  and  C11_17
REMARK    7  A    between atoms: C11_17  and  C12_18
REMARK                            x       y       z     vdW  Elec       q    Type
REMARK                         _______ _______ _______ _____ _____    ______ ____
ROOT
ATOM      1  S1  UNL     1     157.329 157.058 166.158  0.00  0.00    +0.000 S 
ATOM      2  O1  UNL     1     158.641 156.350 165.945  0.00  0.00    +0.000 OA
ATOM      3  O2  UNL     1     156.175 156.163 165.795  0.00  0.00    +0.000 OA
ENDROOT
BRANCH   1   4
ATOM      4  N1  UNL     1     157.303 158.500 165.242  0.00  0.00    +0.000 N 
ATOM      5  C1  UNL     1     156.225 159.401 165.194  0.00  0.00    +0.000 A 
ATOM      6  N2  UNL     1     156.179 160.568 164.489  0.00  0.00    +0.000 NA
ATOM      7  O3  UNL     1     155.037 161.150 164.649  0.00  0.00    +0.000 OA
ATOM      8  C2  UNL     1     154.274 160.442 165.439  0.00  0.00    +0.000 A 
ATOM      9  C3  UNL     1     155.018 159.312 165.802  0.00  0.00    +0.000 A 
ATOM     10  C4  UNL     1     152.893 160.671 165.927  0.00  0.00    +0.000 C 
ATOM     11  H1  UNL     1     158.155 158.770 164.646  0.00  0.00    +0.000 HD
ENDBRANCH   1   4
BRANCH   1  12
ATOM     12  C5  UNL     1     157.160 157.421 167.862  0.00  0.00    +0.000 A 
ATOM     13  C6  UNL     1     156.020 156.995 168.561  0.00  0.00    +0.000 A 
ATOM     14  C7  UNL     1     155.851 157.286 169.894  0.00  0.00    +0.000 A 
ATOM     15  C8  UNL     1     156.775 158.002 170.625  0.00  0.00    +0.000 A 
ATOM     16  C13 UNL     1     157.893 158.418 169.937  0.00  0.00    +0.000 A 
ATOM     17  C14 UNL     1     158.078 158.134 168.596  0.00  0.00    +0.000 A 
BRANCH  15  18
ATOM     18  C9  UNL     1     156.557 158.292 172.055  0.00  0.00    +0.000 C 
BRANCH  18  19
ATOM     19  C10 UNL     1     156.386 159.750 172.344  0.00  0.00    +0.000 C 
BRANCH  19  20
ATOM     20  C11 UNL     1     154.974 160.201 172.506  0.00  0.00    +0.000 C 
ATOM     21  C12 UNL     1     154.509 160.304 173.922  0.00  0.00    +0.000 C 
ENDBRANCH  19  20
ENDBRANCH  18  19
ENDBRANCH  15  18
ENDBRANCH   1  12
TORSDOF 5
ENDMDL
MODEL 3
REMARK VINA RESULT:      -5.3     10.491     12.639
REMARK  Name = ./3D_structures\o2_MMV1782108_3D.pdb
REMARK  7 active torsions:
REMARK  status: ('A' for Active; 'I' for Inactive)
REMARK    1  A    between atoms: S1_1  and  N1_4
REMARK    2  A    between atoms: S1_1  and  C5_11
REMARK    3  A    between atoms: C2_8  and  C4_10
REMARK    4  A    between atoms: C8_14  and  C9_15
REMARK    5  A    between atoms: C9_15  and  C10_16
REMARK    6  A    between atoms: C10_16  and  C11_17
REMARK    7  A    between atoms: C11_17  and  C12_18
REMARK                            x       y       z     vdW  Elec       q    Type
REMARK                         _______ _______ _______ _____ _____    ______ ____
ROOT
ATOM      1  S1  UNL     1     147.750 150.966 166.967  0.00  0.00    +0.000 S 
ATOM      2  O1  UNL     1     148.962 150.835 166.083  0.00  0.00    +0.000 OA
ATOM      3  O2  UNL     1     147.167 149.614 167.276  0.00  0.00    +0.000 OA
ENDROOT
BRANCH   1   4
ATOM      4  N1  UNL     1     146.598 151.976 166.211  0.00  0.00    +0.000 N 
ATOM      5  C1  UNL     1     146.091 151.785 164.914  0.00  0.00    +0.000 A 
ATOM      6  N2  UNL     1     145.159 152.560 164.289  0.00  0.00    +0.000 NA
ATOM      7  O3  UNL     1     144.928 152.121 163.097  0.00  0.00    +0.000 OA
ATOM      8  C2  UNL     1     145.659 151.065 162.853  0.00  0.00    +0.000 A 
ATOM      9  C3  UNL     1     146.415 150.831 164.009  0.00  0.00    +0.000 A 
ATOM     10  C4  UNL     1     145.763 150.204 161.651  0.00  0.00    +0.000 C 
ATOM     11  H1  UNL     1     146.209 152.829 166.736  0.00  0.00    +0.000 HD
ENDBRANCH   1   4
BRANCH   1  12
ATOM     12  C5  UNL     1     148.248 151.655 168.498  0.00  0.00    +0.000 A 
ATOM     13  C6  UNL     1     147.393 151.587 169.609  0.00  0.00    +0.000 A 
ATOM     14  C7  UNL     1     147.749 152.139 170.816  0.00  0.00    +0.000 A 
ATOM     15  C8  UNL     1     148.949 152.787 171.017  0.00  0.00    +0.000 A 
ATOM     16  C13 UNL     1     149.786 152.852 169.925  0.00  0.00    +0.000 A 
ATOM     17  C14 UNL     1     149.443 152.302 168.703  0.00  0.00    +0.000 A 
BRANCH  15  18
ATOM     18  C9  UNL     1     149.295 153.365 172.330  0.00  0.00    +0.000 C 
BRANCH  18  19
ATOM     19  C10 UNL     1     150.439 154.328 172.269  0.00  0.00    +0.000 C 
BRANCH  19  20
ATOM     20  C11 UNL     1     150.051 155.766 172.181  0.00  0.00    +0.000 C 
ATOM     21  C12 UNL     1     150.387 156.426 170.885  0.00  0.00    +0.000 C 
ENDBRANCH  19  20
ENDBRANCH  18  19
ENDBRANCH  15  18
ENDBRANCH   1  12
TORSDOF 5
ENDMDL
MODEL 4
REMARK VINA RESULT:      -5.2      9.751     11.716
REMARK  Name = ./3D_structures\o2_MMV1782108_3D.pdb
REMARK  7 active torsions:
REMARK  status: ('A' for Active; 'I' for Inactive)
REMARK    1  A    between atoms: S1_1  and  N1_4
REMARK    2  A    between atoms: S1_1  and  C5_11
REMARK    3  A    between atoms: C2_8  and  C4_10
REMARK    4  A    between atoms: C8_14  and  C9_15
REMARK    5  A    between atoms: C9_15  and  C10_16
REMARK    6  A    between atoms: C10_16  and  C11_17
REMARK    7  A    between atoms: C11_17  and  C12_18
REMARK                            x       y       z     vdW  Elec       q    Type
REMARK                         _______ _______ _______ _____ _____    ______ ____
ROOT
ATOM      1  S1  UNL     1     147.435 151.021 166.971  0.00  0.00    +0.000 S 
ATOM      2  O1  UNL     1     148.392 151.128 165.813  0.00  0.00    +0.000 OA
ATOM      3  O2  UNL     1     147.180 149.579 167.319  0.00  0.00    +0.000 OA
ENDROOT
BRANCH   1   4
ATOM      4  N1  UNL     1     145.980 151.829 166.587  0.00  0.00    +0.000 N 
ATOM      5  C1  UNL     1     145.875 153.204 166.310  0.00  0.00    +0.000 A 
ATOM      6  N2  UNL     1     144.734 153.876 165.982  0.00  0.00    +0.000 NA
ATOM      7  O3  UNL     1     144.981 155.132 165.809  0.00  0.00    +0.000 OA
ATOM      8  C2  UNL     1     146.251 155.375 166.000  0.00  0.00    +0.000 A 
ATOM      9  C3  UNL     1     146.846 154.148 166.323  0.00  0.00    +0.000 A 
ATOM     10  C4  UNL     1     147.027 156.635 165.923  0.00  0.00    +0.000 C 
ATOM     11  H1  UNL     1     145.059 151.280 166.544  0.00  0.00    +0.000 HD
ENDBRANCH   1   4
BRANCH   1  12
ATOM     12  C5  UNL     1     148.179 151.748 168.379  0.00  0.00    +0.000 A 
ATOM     13  C6  UNL     1     147.429 151.935 169.550  0.00  0.00    +0.000 A 
ATOM     14  C7  UNL     1     147.981 152.524 170.663  0.00  0.00    +0.000 A 
ATOM     15  C8  UNL     1     149.287 152.964 170.705  0.00  0.00    +0.000 A 
ATOM     16  C13 UNL     1     150.021 152.778 169.554  0.00  0.00    +0.000 A 
ATOM     17  C14 UNL     1     149.481 152.188 168.427  0.00  0.00    +0.000 A 
BRANCH  15  18
ATOM     18  C9  UNL     1     149.843 153.590 171.920  0.00  0.00    +0.000 C 
BRANCH  18  19
ATOM     19  C10 UNL     1     150.388 154.963 171.681  0.00  0.00    +0.000 C 
BRANCH  19  20
ATOM     20  C11 UNL     1     149.363 156.043 171.593  0.00  0.00    +0.000 C 
ATOM     21  C12 UNL     1     149.566 157.007 170.470  0.00  0.00    +0.000 C 
ENDBRANCH  19  20
ENDBRANCH  18  19
ENDBRANCH  15  18
ENDBRANCH   1  12
TORSDOF 5
ENDMDL
MODEL 5
REMARK VINA RESULT:      -5.2      4.397      6.640
REMARK  Name = ./3D_structures\o2_MMV1782108_3D.pdb
REMARK  7 active torsions:
REMARK  status: ('A' for Active; 'I' for Inactive)
REMARK    1  A    between atoms: S1_1  and  N1_4
REMARK    2  A    between atoms: S1_1  and  C5_11
REMARK    3  A    between atoms: C2_8  and  C4_10
REMARK    4  A    between atoms: C8_14  and  C9_15
REMARK    5  A    between atoms: C9_15  and  C10_16
REMARK    6  A    between atoms: C10_16  and  C11_17
REMARK    7  A    between atoms: C11_17  and  C12_18
REMARK                            x       y       z     vdW  Elec       q    Type
REMARK                         _______ _______ _______ _____ _____    ______ ____
ROOT
ATOM      1  S1  UNL     1     157.266 156.837 165.923  0.00  0.00    +0.000 S 
ATOM      2  O1  UNL     1     155.980 156.093 165.675  0.00  0.00    +0.000 OA
ATOM      3  O2  UNL     1     157.355 158.055 165.044  0.00  0.00    +0.000 OA
ENDROOT
BRANCH   1   4
ATOM      4  N1  UNL     1     158.591 155.790 165.661  0.00  0.00    +0.000 N 
ATOM      5  C1  UNL     1     158.580 154.683 164.795  0.00  0.00    +0.000 A 
ATOM      6  N2  UNL     1     159.624 153.839 164.549  0.00  0.00    +0.000 NA
ATOM      7  O3  UNL     1     159.275 152.916 163.717  0.00  0.00    +0.000 OA
ATOM      8  C2  UNL     1     158.027 153.072 163.363  0.00  0.00    +0.000 A 
ATOM      9  C3  UNL     1     157.559 154.203 164.044  0.00  0.00    +0.000 A 
ATOM     10  C4  UNL     1     157.166 152.290 162.443  0.00  0.00    +0.000 C 
ATOM     11  H1  UNL     1     159.516 155.959 166.179  0.00  0.00    +0.000 HD
ENDBRANCH   1   4
BRANCH   1  12
ATOM     12  C5  UNL     1     157.268 157.414 167.575  0.00  0.00    +0.000 A 
ATOM     13  C6  UNL     1     158.435 157.967 168.124  0.00  0.00    +0.000 A 
ATOM     14  C7  UNL     1     158.471 158.407 169.426  0.00  0.00    +0.000 A 
ATOM     15  C8  UNL     1     157.382 158.339 170.268  0.00  0.00    +0.000 A 
ATOM     16  C13 UNL     1     156.237 157.797 169.726  0.00  0.00    +0.000 A 
ATOM     17  C14 UNL     1     156.184 157.349 168.419  0.00  0.00    +0.000 A 
BRANCH  15  18
ATOM     18  C9  UNL     1     157.461 158.825 171.659  0.00  0.00    +0.000 C 
BRANCH  18  19
ATOM     19  C10 UNL     1     156.134 158.852 172.352  0.00  0.00    +0.000 C 
BRANCH  19  20
ATOM     20  C11 UNL     1     155.873 160.071 173.170  0.00  0.00    +0.000 C 
ATOM     21  C12 UNL     1     156.705 161.257 172.807  0.00  0.00    +0.000 C 
ENDBRANCH  19  20
ENDBRANCH  18  19
ENDBRANCH  15  18
ENDBRANCH   1  12
TORSDOF 5
ENDMDL
MODEL 6
REMARK VINA RESULT:      -5.0      3.140      4.466
REMARK  Name = ./3D_structures\o2_MMV1782108_3D.pdb
REMARK  7 active torsions:
REMARK  status: ('A' for Active; 'I' for Inactive)
REMARK    1  A    between atoms: S1_1  and  N1_4
REMARK    2  A    between atoms: S1_1  and  C5_11
REMARK    3  A    between atoms: C2_8  and  C4_10
REMARK    4  A    between atoms: C8_14  and  C9_15
REMARK    5  A    between atoms: C9_15  and  C10_16
REMARK    6  A    between atoms: C10_16  and  C11_17
REMARK    7  A    between atoms: C11_17  and  C12_18
REMARK                            x       y       z     vdW  Elec       q    Type
REMARK                         _______ _______ _______ _____ _____    ______ ____
ROOT
ATOM      1  S1  UNL     1     157.222 158.395 170.797  0.00  0.00    +0.000 S 
ATOM      2  O1  UNL     1     156.626 157.281 171.616  0.00  0.00    +0.000 OA
ATOM      3  O2  UNL     1     158.570 157.997 170.257  0.00  0.00    +0.000 OA
ENDROOT
BRANCH   1   4
ATOM      4  N1  UNL     1     157.333 159.809 171.750  0.00  0.00    +0.000 N 
ATOM      5  C1  UNL     1     156.291 160.331 172.535  0.00  0.00    +0.000 A 
ATOM      6  N2  UNL     1     156.352 161.445 173.321  0.00  0.00    +0.000 NA
ATOM      7  O3  UNL     1     155.215 161.659 173.894  0.00  0.00    +0.000 OA
ATOM      8  C2  UNL     1     154.352 160.741 173.547  0.00  0.00    +0.000 A 
ATOM      9  C3  UNL     1     155.022 159.876 172.673  0.00  0.00    +0.000 A 
ATOM     10  C4  UNL     1     152.932 160.541 173.925  0.00  0.00    +0.000 C 
ATOM     11  H1  UNL     1     158.252 160.365 171.776  0.00  0.00    +0.000 HD
ENDBRANCH   1   4
BRANCH   1  12
ATOM     12  C5  UNL     1     156.194 158.680 169.409  0.00  0.00    +0.000 A 
ATOM     13  C6  UNL     1     156.665 159.448 168.333  0.00  0.00    +0.000 A 
ATOM     14  C7  UNL     1     155.871 159.707 167.241  0.00  0.00    +0.000 A 
ATOM     15  C8  UNL     1     154.580 159.237 167.128  0.00  0.00    +0.000 A 
ATOM     16  C13 UNL     1     154.121 158.482 168.185  0.00  0.00    +0.000 A 
ATOM     17  C14 UNL     1     154.906 158.214 169.291  0.00  0.00    +0.000 A 
BRANCH  15  18
ATOM     18  C9  UNL     1     153.760 159.535 165.938  0.00  0.00    +0.000 C 
BRANCH  18  19
ATOM     19  C10 UNL     1     152.828 160.689 166.136  0.00  0.00    +0.000 C 
BRANCH  19  20
ATOM     20  C11 UNL     1     151.977 161.024 164.958  0.00  0.00    +0.000 C 
ATOM     21  C12 UNL     1     152.262 162.351 164.337  0.00  0.00    +0.000 C 
ENDBRANCH  19  20
ENDBRANCH  18  19
ENDBRANCH  15  18
ENDBRANCH   1  12
TORSDOF 5
ENDMDL
MODEL 7
REMARK VINA RESULT:      -5.0      5.583      7.259
REMARK  Name = ./3D_structures\o2_MMV1782108_3D.pdb
REMARK  7 active torsions:
REMARK  status: ('A' for Active; 'I' for Inactive)
REMARK    1  A    between atoms: S1_1  and  N1_4
REMARK    2  A    between atoms: S1_1  and  C5_11
REMARK    3  A    between atoms: C2_8  and  C4_10
REMARK    4  A    between atoms: C8_14  and  C9_15
REMARK    5  A    between atoms: C9_15  and  C10_16
REMARK    6  A    between atoms: C10_16  and  C11_17
REMARK    7  A    between atoms: C11_17  and  C12_18
REMARK                            x       y       z     vdW  Elec       q    Type
REMARK                         _______ _______ _______ _____ _____    ______ ____
ROOT
ATOM      1  S1  UNL     1     155.872 160.820 173.048  0.00  0.00    +0.000 S 
ATOM      2  O1  UNL     1     155.368 159.704 173.924  0.00  0.00    +0.000 OA
ATOM      3  O2  UNL     1     156.753 161.756 173.830  0.00  0.00    +0.000 OA
ENDROOT
BRANCH   1   4
ATOM      4  N1  UNL     1     154.546 161.650 172.360  0.00  0.00    +0.000 N 
ATOM      5  C1  UNL     1     153.544 161.052 171.576  0.00  0.00    +0.000 A 
ATOM      6  N2  UNL     1     152.465 161.681 171.029  0.00  0.00    +0.000 NA
ATOM      7  O3  UNL     1     151.749 160.847 170.351  0.00  0.00    +0.000 OA
ATOM      8  C2  UNL     1     152.277 159.653 170.397  0.00  0.00    +0.000 A 
ATOM      9  C3  UNL     1     153.434 159.761 171.180  0.00  0.00    +0.000 A 
ATOM     10  C4  UNL     1     151.847 158.369 169.794  0.00  0.00    +0.000 C 
ATOM     11  H1  UNL     1     154.438 162.706 172.518  0.00  0.00    +0.000 HD
ENDBRANCH   1   4
BRANCH   1  12
ATOM     12  C5  UNL     1     156.874 160.131 171.788  0.00  0.00    +0.000 A 
ATOM     13  C6  UNL     1     157.441 160.962 170.810  0.00  0.00    +0.000 A 
ATOM     14  C7  UNL     1     158.213 160.445 169.796  0.00  0.00    +0.000 A 
ATOM     15  C8  UNL     1     158.480 159.098 169.673  0.00  0.00    +0.000 A 
ATOM     16  C13 UNL     1     157.923 158.285 170.636  0.00  0.00    +0.000 A 
ATOM     17  C14 UNL     1     157.144 158.789 171.661  0.00  0.00    +0.000 A 
BRANCH  15  18
ATOM     18  C9  UNL     1     159.316 158.583 168.571  0.00  0.00    +0.000 C 
BRANCH  18  19
ATOM     19  C10 UNL     1     158.589 158.504 167.265  0.00  0.00    +0.000 C 
BRANCH  19  20
ATOM     20  C11 UNL     1     157.917 157.201 166.993  0.00  0.00    +0.000 C 
ATOM     21  C12 UNL     1     156.445 157.193 167.244  0.00  0.00    +0.000 C 
ENDBRANCH  19  20
ENDBRANCH  18  19
ENDBRANCH  15  18
ENDBRANCH   1  12
TORSDOF 5
ENDMDL
MODEL 8
REMARK VINA RESULT:      -5.0      4.598      6.389
REMARK  Name = ./3D_structures\o2_MMV1782108_3D.pdb
REMARK  7 active torsions:
REMARK  status: ('A' for Active; 'I' for Inactive)
REMARK    1  A    between atoms: S1_1  and  N1_4
REMARK    2  A    between atoms: S1_1  and  C5_11
REMARK    3  A    between atoms: C2_8  and  C4_10
REMARK    4  A    between atoms: C8_14  and  C9_15
REMARK    5  A    between atoms: C9_15  and  C10_16
REMARK    6  A    between atoms: C10_16  and  C11_17
REMARK    7  A    between atoms: C11_17  and  C12_18
REMARK                            x       y       z     vdW  Elec       q    Type
REMARK                         _______ _______ _______ _____ _____    ______ ____
ROOT
ATOM      1  S1  UNL     1     157.081 158.249 170.679  0.00  0.00    +0.000 S 
ATOM      2  O1  UNL     1     156.294 157.159 171.356  0.00  0.00    +0.000 OA
ATOM      3  O2  UNL     1     158.439 158.397 171.311  0.00  0.00    +0.000 OA
ENDROOT
BRANCH   1   4
ATOM      4  N1  UNL     1     156.206 159.715 170.749  0.00  0.00    +0.000 N 
ATOM      5  C1  UNL     1     154.824 159.836 170.520  0.00  0.00    +0.000 A 
ATOM      6  N2  UNL     1     154.092 160.985 170.586  0.00  0.00    +0.000 NA
ATOM      7  O3  UNL     1     152.855 160.753 170.303  0.00  0.00    +0.000 OA
ATOM      8  C2  UNL     1     152.680 159.485 170.039  0.00  0.00    +0.000 A 
ATOM      9  C3  UNL     1     153.934 158.875 170.173  0.00  0.00    +0.000 A 
ATOM     10  C4  UNL     1     151.465 158.722 169.665  0.00  0.00    +0.000 C 
ATOM     11  H1  UNL     1     156.715 160.631 170.983  0.00  0.00    +0.000 HD
ENDBRANCH   1   4
BRANCH   1  12
ATOM     12  C5  UNL     1     157.355 157.787 169.013  0.00  0.00    +0.000 A 
ATOM     13  C6  UNL     1     158.523 158.198 168.354  0.00  0.00    +0.000 A 
ATOM     14  C7  UNL     1     158.753 157.869 167.039  0.00  0.00    +0.000 A 
ATOM     15  C8  UNL     1     157.869 157.123 166.289  0.00  0.00    +0.000 A 
ATOM     16  C13 UNL     1     156.723 156.720 166.940  0.00  0.00    +0.000 A 
ATOM     17  C14 UNL     1     156.476 157.043 168.261  0.00  0.00    +0.000 A 
BRANCH  15  18
ATOM     18  C9  UNL     1     158.153 156.789 164.881  0.00  0.00    +0.000 C 
BRANCH  18  19
ATOM     19  C10 UNL     1     159.188 155.719 164.725  0.00  0.00    +0.000 C 
BRANCH  19  20
ATOM     20  C11 UNL     1     158.687 154.325 164.891  0.00  0.00    +0.000 C 
ATOM     21  C12 UNL     1     158.063 153.735 163.669  0.00  0.00    +0.000 C 
ENDBRANCH  19  20
ENDBRANCH  18  19
ENDBRANCH  15  18
ENDBRANCH   1  12
TORSDOF 5
ENDMDL
MODEL 9
REMARK VINA RESULT:      -5.0      5.238      7.774
REMARK  Name = ./3D_structures\o2_MMV1782108_3D.pdb
REMARK  7 active torsions:
REMARK  status: ('A' for Active; 'I' for Inactive)
REMARK    1  A    between atoms: S1_1  and  N1_4
REMARK    2  A    between atoms: S1_1  and  C5_11
REMARK    3  A    between atoms: C2_8  and  C4_10
REMARK    4  A    between atoms: C8_14  and  C9_15
REMARK    5  A    between atoms: C9_15  and  C10_16
REMARK    6  A    between atoms: C10_16  and  C11_17
REMARK    7  A    between atoms: C11_17  and  C12_18
REMARK                            x       y       z     vdW  Elec       q    Type
REMARK                         _______ _______ _______ _____ _____    ______ ____
ROOT
ATOM      1  S1  UNL     1     152.220 161.287 166.765  0.00  0.00    +0.000 S 
ATOM      2  O1  UNL     1     152.927 162.616 166.741  0.00  0.00    +0.000 OA
ATOM      3  O2  UNL     1     151.437 161.076 165.497  0.00  0.00    +0.000 OA
ENDROOT
BRANCH   1   4
ATOM      4  N1  UNL     1     151.205 161.204 168.137  0.00  0.00    +0.000 N 
ATOM      5  C1  UNL     1     150.009 161.925 168.295  0.00  0.00    +0.000 A 
ATOM      6  N2  UNL     1     149.167 161.869 169.367  0.00  0.00    +0.000 NA
ATOM      7  O3  UNL     1     148.168 162.669 169.202  0.00  0.00    +0.000 OA
ATOM      8  C2  UNL     1     148.267 163.290 168.057  0.00  0.00    +0.000 A 
ATOM      9  C3  UNL     1     149.444 162.826 167.455  0.00  0.00    +0.000 A 
ATOM     10  C4  UNL     1     147.390 164.295 167.409  0.00  0.00    +0.000 C 
ATOM     11  H1  UNL     1     151.468 160.565 168.959  0.00  0.00    +0.000 HD
ENDBRANCH   1   4
BRANCH   1  12
ATOM     12  C5  UNL     1     153.423 160.016 166.824  0.00  0.00    +0.000 A 
ATOM     13  C6  UNL     1     154.341 159.870 165.774  0.00  0.00    +0.000 A 
ATOM     14  C7  UNL     1     155.282 158.868 165.784  0.00  0.00    +0.000 A 
ATOM     15  C8  UNL     1     155.387 157.952 166.809  0.00  0.00    +0.000 A 
ATOM     16  C13 UNL     1     154.484 158.098 167.840  0.00  0.00    +0.000 A 
ATOM     17  C14 UNL     1     153.532 159.101 167.844  0.00  0.00    +0.000 A 
BRANCH  15  18
ATOM     18  C9  UNL     1     156.412 156.891 166.784  0.00  0.00    +0.000 C 
BRANCH  18  19
ATOM     19  C10 UNL     1     157.186 156.785 168.060  0.00  0.00    +0.000 C 
BRANCH  19  20
ATOM     20  C11 UNL     1     158.054 157.957 168.372  0.00  0.00    +0.000 C 
ATOM     21  C12 UNL     1     157.997 158.417 169.792  0.00  0.00    +0.000 C 
ENDBRANCH  19  20
ENDBRANCH  18  19
ENDBRANCH  15  18
ENDBRANCH   1  12
TORSDOF 5
ENDMDL
