MODEL 1
REMARK VINA RESULT:      -5.0      0.000      0.000
REMARK  Name = ./3D_structures\o32_MMV1782224_3D.pdb
REMARK  3 active torsions:
REMARK  status: ('A' for Active; 'I' for Inactive)
REMARK    1  A    between atoms: C4_5  and  C5_6
REMARK    2  A    between atoms: C8_10  and  C9_11
REMARK    3  A    between atoms: C8_10  and  N2_13
REMARK                            x       y       z     vdW  Elec       q    Type
REMARK                         _______ _______ _______ _____ _____    ______ ____
ROOT
ATOM      1  C5  UNL     1     151.506 161.283 168.577  0.00  0.00    +0.000 C 
ATOM      2  C6  UNL     1     150.700 161.090 167.405  0.00  0.00    +0.000 C 
ATOM      3  S1  UNL     1     148.968 161.610 167.801  0.00  0.00    +0.000 S 
ATOM      4  C7  UNL     1     149.240 162.844 168.989  0.00  0.00    +0.000 C 
ATOM      5  C8  UNL     1     148.617 163.926 169.424  0.00  0.00    +0.000 C 
ATOM      6  S2  UNL     1     150.729 162.258 169.856  0.00  0.00    +0.000 S 
ENDROOT
BRANCH   1  11
ATOM      7 CL1  UNL     1     155.598 157.113 169.948  0.00  0.00    +0.000 Cl
ATOM      8  C1  UNL     1     154.419 158.371 169.622  0.00  0.00    +0.000 A 
ATOM      9  C2  UNL     1     153.059 158.025 169.647  0.00  0.00    +0.000 A 
ATOM     10  C3  UNL     1     152.092 158.988 169.376  0.00  0.00    +0.000 A 
ATOM     11  C4  UNL     1     152.459 160.312 169.069  0.00  0.00    +0.000 A 
ATOM     12  C13 UNL     1     153.830 160.627 169.057  0.00  0.00    +0.000 A 
ATOM     13 CL2  UNL     1     154.343 162.291 168.727  0.00  0.00    +0.000 Cl
ATOM     14  C14 UNL     1     154.781 159.683 169.325  0.00  0.00    +0.000 A 
ENDBRANCH   1  11
BRANCH   5  15
ATOM     15  N2  UNL     1     147.340 164.251 168.910  0.00  0.00    +0.000 N 
ATOM     16  C10 UNL     1     147.048 165.010 167.864  0.00  0.00    +0.000 A 
ATOM     17  C11 UNL     1     145.703 165.127 167.688  0.00  0.00    +0.000 A 
ATOM     18  N3  UNL     1     145.133 164.403 168.688  0.00  0.00    +0.000 NA
ATOM     19  C12 UNL     1     146.156 163.863 169.428  0.00  0.00    +0.000 A 
ENDBRANCH   5  15
BRANCH   5  20
ATOM     20  C9  UNL     1     149.173 164.737 170.447  0.00  0.00    +0.000 C 
ATOM     21  N1  UNL     1     149.637 165.440 171.344  0.00  0.00    +0.000 NA
ENDBRANCH   5  20
TORSDOF 3
ENDMDL
MODEL 2
REMARK VINA RESULT:      -4.9      2.390      2.968
REMARK  Name = ./3D_structures\o32_MMV1782224_3D.pdb
REMARK  3 active torsions:
REMARK  status: ('A' for Active; 'I' for Inactive)
REMARK    1  A    between atoms: C4_5  and  C5_6
REMARK    2  A    between atoms: C8_10  and  C9_11
REMARK    3  A    between atoms: C8_10  and  N2_13
REMARK                            x       y       z     vdW  Elec       q    Type
REMARK                         _______ _______ _______ _____ _____    ______ ____
ROOT
ATOM      1  C5  UNL     1     152.130 161.562 167.559  0.00  0.00    +0.000 C 
ATOM      2  C6  UNL     1     152.565 162.872 167.166  0.00  0.00    +0.000 C 
ATOM      3  S1  UNL     1     151.160 163.715 166.304  0.00  0.00    +0.000 S 
ATOM      4  C7  UNL     1     149.791 162.992 167.086  0.00  0.00    +0.000 C 
ATOM      5  C8  UNL     1     148.537 163.321 167.346  0.00  0.00    +0.000 C 
ATOM      6  S2  UNL     1     150.367 161.303 167.443  0.00  0.00    +0.000 S 
ENDROOT
BRANCH   1  11
ATOM      7 CL1  UNL     1     155.955 156.974 166.977  0.00  0.00    +0.000 Cl
ATOM      8  C1  UNL     1     154.774 158.259 167.165  0.00  0.00    +0.000 A 
ATOM      9  C2  UNL     1     154.369 158.957 166.018  0.00  0.00    +0.000 A 
ATOM     10  C3  UNL     1     153.449 159.996 166.124  0.00  0.00    +0.000 A 
ATOM     11  C4  UNL     1     152.919 160.362 167.376  0.00  0.00    +0.000 A 
ATOM     12  C13 UNL     1     153.342 159.640 168.506  0.00  0.00    +0.000 A 
ATOM     13 CL2  UNL     1     152.667 160.028 170.098  0.00  0.00    +0.000 Cl
ATOM     14  C14 UNL     1     154.244 158.619 168.402  0.00  0.00    +0.000 A 
ENDBRANCH   1  11
BRANCH   5  15
ATOM     15  N2  UNL     1     148.020 164.543 166.860  0.00  0.00    +0.000 N 
ATOM     16  C10 UNL     1     146.868 164.756 166.240  0.00  0.00    +0.000 A 
ATOM     17  C11 UNL     1     146.722 166.062 165.885  0.00  0.00    +0.000 A 
ATOM     18  N3  UNL     1     147.853 166.690 166.305  0.00  0.00    +0.000 NA
ATOM     19  C12 UNL     1     148.639 165.741 166.910  0.00  0.00    +0.000 A 
ENDBRANCH   5  15
BRANCH   5  20
ATOM     20  C9  UNL     1     147.675 162.442 168.051  0.00  0.00    +0.000 C 
ATOM     21  N1  UNL     1     146.938 161.683 168.680  0.00  0.00    +0.000 NA
ENDBRANCH   5  20
TORSDOF 3
ENDMDL
MODEL 3
REMARK VINA RESULT:      -4.9      2.414      2.958
REMARK  Name = ./3D_structures\o32_MMV1782224_3D.pdb
REMARK  3 active torsions:
REMARK  status: ('A' for Active; 'I' for Inactive)
REMARK    1  A    between atoms: C4_5  and  C5_6
REMARK    2  A    between atoms: C8_10  and  C9_11
REMARK    3  A    between atoms: C8_10  and  N2_13
REMARK                            x       y       z     vdW  Elec       q    Type
REMARK                         _______ _______ _______ _____ _____    ______ ____
ROOT
ATOM      1  C5  UNL     1     151.513 161.628 167.874  0.00  0.00    +0.000 C 
ATOM      2  C6  UNL     1     151.654 163.056 167.864  0.00  0.00    +0.000 C 
ATOM      3  S1  UNL     1     150.147 163.781 167.070  0.00  0.00    +0.000 S 
ATOM      4  C7  UNL     1     148.939 162.608 167.486  0.00  0.00    +0.000 C 
ATOM      5  C8  UNL     1     147.629 162.587 167.667  0.00  0.00    +0.000 C 
ATOM      6  S2  UNL     1     149.870 161.044 167.491  0.00  0.00    +0.000 S 
ENDROOT
BRANCH   1  11
ATOM      7 CL1  UNL     1     155.385 157.392 166.119  0.00  0.00    +0.000 Cl
ATOM      8  C1  UNL     1     154.314 158.690 166.618  0.00  0.00    +0.000 A 
ATOM      9  C2  UNL     1     153.973 158.781 167.976  0.00  0.00    +0.000 A 
ATOM     10  C3  UNL     1     153.112 159.783 168.411  0.00  0.00    +0.000 A 
ATOM     11  C4  UNL     1     152.569 160.711 167.502  0.00  0.00    +0.000 A 
ATOM     12  C13 UNL     1     152.934 160.595 166.149  0.00  0.00    +0.000 A 
ATOM     13 CL2  UNL     1     152.318 161.769 164.973  0.00  0.00    +0.000 Cl
ATOM     14  C14 UNL     1     153.781 159.612 165.721  0.00  0.00    +0.000 A 
ENDBRANCH   1  11
BRANCH   5  15
ATOM     15  N2  UNL     1     146.872 163.758 167.432  0.00  0.00    +0.000 N 
ATOM     16  C10 UNL     1     146.377 164.195 166.283  0.00  0.00    +0.000 A 
ATOM     17  C11 UNL     1     145.729 165.383 166.435  0.00  0.00    +0.000 A 
ATOM     18  N3  UNL     1     145.836 165.699 167.753  0.00  0.00    +0.000 NA
ATOM     19  C12 UNL     1     146.537 164.683 168.355  0.00  0.00    +0.000 A 
ENDBRANCH   5  15
BRANCH   5  20
ATOM     20  C9  UNL     1     146.954 161.393 168.032  0.00  0.00    +0.000 C 
ATOM     21  N1  UNL     1     146.351 160.369 168.350  0.00  0.00    +0.000 NA
ENDBRANCH   5  20
TORSDOF 3
ENDMDL
MODEL 4
REMARK VINA RESULT:      -4.8      1.945      2.930
REMARK  Name = ./3D_structures\o32_MMV1782224_3D.pdb
REMARK  3 active torsions:
REMARK  status: ('A' for Active; 'I' for Inactive)
REMARK    1  A    between atoms: C4_5  and  C5_6
REMARK    2  A    between atoms: C8_10  and  C9_11
REMARK    3  A    between atoms: C8_10  and  N2_13
REMARK                            x       y       z     vdW  Elec       q    Type
REMARK                         _______ _______ _______ _____ _____    ______ ____
ROOT
ATOM      1  C5  UNL     1     150.971 160.527 169.393  0.00  0.00    +0.000 C 
ATOM      2  C6  UNL     1     150.982 161.669 170.262  0.00  0.00    +0.000 C 
ATOM      3  S1  UNL     1     149.936 162.991 169.495  0.00  0.00    +0.000 S 
ATOM      4  C7  UNL     1     148.772 162.047 168.622  0.00  0.00    +0.000 C 
ATOM      5  C8  UNL     1     147.528 162.190 168.200  0.00  0.00    +0.000 C 
ATOM      6  S2  UNL     1     149.729 160.585 168.111  0.00  0.00    +0.000 S 
ENDROOT
BRANCH   1  11
ATOM      7 CL1  UNL     1     156.107 157.535 168.565  0.00  0.00    +0.000 Cl
ATOM      8  C1  UNL     1     154.568 158.358 168.748  0.00  0.00    +0.000 A 
ATOM      9  C2  UNL     1     154.460 159.672 168.267  0.00  0.00    +0.000 A 
ATOM     10  C3  UNL     1     153.264 160.369 168.409  0.00  0.00    +0.000 A 
ATOM     11  C4  UNL     1     152.154 159.773 169.037  0.00  0.00    +0.000 A 
ATOM     12  C13 UNL     1     152.294 158.453 169.505  0.00  0.00    +0.000 A 
ATOM     13 CL2  UNL     1     150.911 157.640 170.257  0.00  0.00    +0.000 Cl
ATOM     14  C14 UNL     1     153.468 157.768 169.364  0.00  0.00    +0.000 A 
ENDBRANCH   1  11
BRANCH   5  15
ATOM     15  N2  UNL     1     146.862 163.423 168.393  0.00  0.00    +0.000 N 
ATOM     16  C10 UNL     1     146.775 164.447 167.556  0.00  0.00    +0.000 A 
ATOM     17  C11 UNL     1     146.079 165.483 168.100  0.00  0.00    +0.000 A 
ATOM     18  N3  UNL     1     145.721 165.076 169.347  0.00  0.00    +0.000 NA
ATOM     19  C12 UNL     1     146.205 163.801 169.509  0.00  0.00    +0.000 A 
ENDBRANCH   5  15
BRANCH   5  20
ATOM     20  C9  UNL     1     146.863 161.152 167.497  0.00  0.00    +0.000 C 
ATOM     21  N1  UNL     1     146.283 160.266 166.872  0.00  0.00    +0.000 NA
ENDBRANCH   5  20
TORSDOF 3
ENDMDL
MODEL 5
REMARK VINA RESULT:      -4.8      4.170      5.247
REMARK  Name = ./3D_structures\o32_MMV1782224_3D.pdb
REMARK  3 active torsions:
REMARK  status: ('A' for Active; 'I' for Inactive)
REMARK    1  A    between atoms: C4_5  and  C5_6
REMARK    2  A    between atoms: C8_10  and  C9_11
REMARK    3  A    between atoms: C8_10  and  N2_13
REMARK                            x       y       z     vdW  Elec       q    Type
REMARK                         _______ _______ _______ _____ _____    ______ ____
ROOT
ATOM      1  C5  UNL     1     151.843 164.839 166.077  0.00  0.00    +0.000 C 
ATOM      2  C6  UNL     1     150.979 165.980 165.973  0.00  0.00    +0.000 C 
ATOM      3  S1  UNL     1     149.240 165.419 166.272  0.00  0.00    +0.000 S 
ATOM      4  C7  UNL     1     149.489 164.084 167.352  0.00  0.00    +0.000 C 
ATOM      5  C8  UNL     1     148.808 163.465 168.301  0.00  0.00    +0.000 C 
ATOM      6  S2  UNL     1     151.077 163.393 166.792  0.00  0.00    +0.000 S 
ENDROOT
BRANCH   1  11
ATOM      7 CL1  UNL     1     156.101 164.230 161.891  0.00  0.00    +0.000 Cl
ATOM      8  C1  UNL     1     154.903 164.357 163.167  0.00  0.00    +0.000 A 
ATOM      9  C2  UNL     1     153.668 163.717 162.981  0.00  0.00    +0.000 A 
ATOM     10  C3  UNL     1     152.683 163.808 163.960  0.00  0.00    +0.000 A 
ATOM     11  C4  UNL     1     152.906 164.543 165.139  0.00  0.00    +0.000 A 
ATOM     12  C13 UNL     1     154.155 165.170 165.297  0.00  0.00    +0.000 A 
ATOM     13 CL2  UNL     1     154.504 166.065 166.785  0.00  0.00    +0.000 Cl
ATOM     14  C14 UNL     1     155.124 165.079 164.337  0.00  0.00    +0.000 A 
ENDBRANCH   1  11
BRANCH   5  15
ATOM     15  N2  UNL     1     147.477 163.856 168.575  0.00  0.00    +0.000 N 
ATOM     16  C10 UNL     1     146.359 163.387 168.039  0.00  0.00    +0.000 A 
ATOM     17  C11 UNL     1     145.261 164.030 168.524  0.00  0.00    +0.000 A 
ATOM     18  N3  UNL     1     145.730 164.954 169.404  0.00  0.00    +0.000 NA
ATOM     19  C12 UNL     1     147.097 164.829 169.430  0.00  0.00    +0.000 A 
ENDBRANCH   5  15
BRANCH   5  20
ATOM     20  C9  UNL     1     149.363 162.370 169.012  0.00  0.00    +0.000 C 
ATOM     21  N1  UNL     1     149.862 161.429 169.628  0.00  0.00    +0.000 NA
ENDBRANCH   5  20
TORSDOF 3
ENDMDL
MODEL 6
REMARK VINA RESULT:      -4.6      6.023      8.145
REMARK  Name = ./3D_structures\o32_MMV1782224_3D.pdb
REMARK  3 active torsions:
REMARK  status: ('A' for Active; 'I' for Inactive)
REMARK    1  A    between atoms: C4_5  and  C5_6
REMARK    2  A    between atoms: C8_10  and  C9_11
REMARK    3  A    between atoms: C8_10  and  N2_13
REMARK                            x       y       z     vdW  Elec       q    Type
REMARK                         _______ _______ _______ _____ _____    ______ ____
ROOT
ATOM      1  C5  UNL     1     157.102 157.489 166.453  0.00  0.00    +0.000 C 
ATOM      2  C6  UNL     1     156.050 158.237 165.826  0.00  0.00    +0.000 C 
ATOM      3  S1  UNL     1     154.570 158.197 166.937  0.00  0.00    +0.000 S 
ATOM      4  C7  UNL     1     155.313 158.080 168.499  0.00  0.00    +0.000 C 
ATOM      5  C8  UNL     1     155.011 158.410 169.744  0.00  0.00    +0.000 C 
ATOM      6  S2  UNL     1     156.808 157.096 168.170  0.00  0.00    +0.000 S 
ENDROOT
BRANCH   1  11
ATOM      7 CL1  UNL     1     160.502 153.928 163.022  0.00  0.00    +0.000 Cl
ATOM      8  C1  UNL     1     159.549 154.938 164.094  0.00  0.00    +0.000 A 
ATOM      9  C2  UNL     1     158.188 154.634 164.253  0.00  0.00    +0.000 A 
ATOM     10  C3  UNL     1     157.391 155.420 165.080  0.00  0.00    +0.000 A 
ATOM     11  C4  UNL     1     157.933 156.528 165.759  0.00  0.00    +0.000 A 
ATOM     12  C13 UNL     1     159.301 156.803 165.582  0.00  0.00    +0.000 A 
ATOM     13 CL2  UNL     1     160.042 158.155 166.455  0.00  0.00    +0.000 Cl
ATOM     14  C14 UNL     1     160.084 156.030 164.772  0.00  0.00    +0.000 A 
ENDBRANCH   1  11
BRANCH   5  15
ATOM     15  N2  UNL     1     153.743 158.963 170.032  0.00  0.00    +0.000 N 
ATOM     16  C10 UNL     1     152.567 158.351 170.052  0.00  0.00    +0.000 A 
ATOM     17  C11 UNL     1     151.556 159.215 170.339  0.00  0.00    +0.000 A 
ATOM     18  N3  UNL     1     152.140 160.433 170.500  0.00  0.00    +0.000 NA
ATOM     19  C12 UNL     1     153.490 160.258 170.315  0.00  0.00    +0.000 A 
ENDBRANCH   5  15
BRANCH   5  20
ATOM     20  C9  UNL     1     155.912 158.160 170.812  0.00  0.00    +0.000 C 
ATOM     21  N1  UNL     1     156.699 157.964 171.736  0.00  0.00    +0.000 NA
ENDBRANCH   5  20
TORSDOF 3
ENDMDL
MODEL 7
REMARK VINA RESULT:      -4.6      1.681      1.827
REMARK  Name = ./3D_structures\o32_MMV1782224_3D.pdb
REMARK  3 active torsions:
REMARK  status: ('A' for Active; 'I' for Inactive)
REMARK    1  A    between atoms: C4_5  and  C5_6
REMARK    2  A    between atoms: C8_10  and  C9_11
REMARK    3  A    between atoms: C8_10  and  N2_13
REMARK                            x       y       z     vdW  Elec       q    Type
REMARK                         _______ _______ _______ _____ _____    ______ ____
ROOT
ATOM      1  C5  UNL     1     151.654 161.334 167.469  0.00  0.00    +0.000 C 
ATOM      2  C6  UNL     1     150.406 160.995 166.848  0.00  0.00    +0.000 C 
ATOM      3  S1  UNL     1     149.041 161.771 167.829  0.00  0.00    +0.000 S 
ATOM      4  C7  UNL     1     149.827 163.185 168.456  0.00  0.00    +0.000 C 
ATOM      5  C8  UNL     1     149.473 164.394 168.856  0.00  0.00    +0.000 C 
ATOM      6  S2  UNL     1     151.544 162.629 168.694  0.00  0.00    +0.000 S 
ENDROOT
BRANCH   1  11
ATOM      7 CL1  UNL     1     155.681 156.932 168.116  0.00  0.00    +0.000 Cl
ATOM      8  C1  UNL     1     154.569 158.276 167.930  0.00  0.00    +0.000 A 
ATOM      9  C2  UNL     1     153.713 158.580 169.000  0.00  0.00    +0.000 A 
ATOM     10  C3  UNL     1     152.803 159.625 168.888  0.00  0.00    +0.000 A 
ATOM     11  C4  UNL     1     152.722 160.386 167.705  0.00  0.00    +0.000 A 
ATOM     12  C13 UNL     1     153.595 160.058 166.653  0.00  0.00    +0.000 A 
ATOM     13 CL2  UNL     1     153.569 161.016 165.162  0.00  0.00    +0.000 Cl
ATOM     14  C14 UNL     1     154.491 159.032 166.763  0.00  0.00    +0.000 A 
ENDBRANCH   1  11
BRANCH   5  15
ATOM     15  N2  UNL     1     148.104 164.745 168.892  0.00  0.00    +0.000 N 
ATOM     16  C10 UNL     1     147.281 164.729 169.932  0.00  0.00    +0.000 A 
ATOM     17  C11 UNL     1     146.020 165.102 169.580  0.00  0.00    +0.000 A 
ATOM     18  N3  UNL     1     146.066 165.356 168.245  0.00  0.00    +0.000 NA
ATOM     19  C12 UNL     1     147.359 165.139 167.838  0.00  0.00    +0.000 A 
ENDBRANCH   5  15
BRANCH   5  20
ATOM     20  C9  UNL     1     150.435 165.331 169.313  0.00  0.00    +0.000 C 
ATOM     21  N1  UNL     1     151.261 166.158 169.698  0.00  0.00    +0.000 NA
ENDBRANCH   5  20
TORSDOF 3
ENDMDL
MODEL 8
REMARK VINA RESULT:      -4.5      5.488      7.277
REMARK  Name = ./3D_structures\o32_MMV1782224_3D.pdb
REMARK  3 active torsions:
REMARK  status: ('A' for Active; 'I' for Inactive)
REMARK    1  A    between atoms: C4_5  and  C5_6
REMARK    2  A    between atoms: C8_10  and  C9_11
REMARK    3  A    between atoms: C8_10  and  N2_13
REMARK                            x       y       z     vdW  Elec       q    Type
REMARK                         _______ _______ _______ _____ _____    ______ ____
ROOT
ATOM      1  C5  UNL     1     156.789 157.641 167.830  0.00  0.00    +0.000 C 
ATOM      2  C6  UNL     1     156.453 156.800 168.944  0.00  0.00    +0.000 C 
ATOM      3  S1  UNL     1     155.292 157.733 170.043  0.00  0.00    +0.000 S 
ATOM      4  C7  UNL     1     154.471 158.746 168.900  0.00  0.00    +0.000 C 
ATOM      5  C8  UNL     1     153.296 159.344 168.802  0.00  0.00    +0.000 C 
ATOM      6  S2  UNL     1     155.757 159.087 167.657  0.00  0.00    +0.000 S 
ENDROOT
BRANCH   1  11
ATOM      7 CL1  UNL     1     162.500 157.703 165.987  0.00  0.00    +0.000 Cl
ATOM      8  C1  UNL     1     160.811 157.739 166.461  0.00  0.00    +0.000 A 
ATOM      9  C2  UNL     1     160.473 158.394 167.656  0.00  0.00    +0.000 A 
ATOM     10  C3  UNL     1     159.148 158.430 168.079  0.00  0.00    +0.000 A 
ATOM     11  C4  UNL     1     158.134 157.810 167.324  0.00  0.00    +0.000 A 
ATOM     12  C13 UNL     1     158.505 157.165 166.130  0.00  0.00    +0.000 A 
ATOM     13 CL2  UNL     1     157.261 156.413 165.117  0.00  0.00    +0.000 Cl
ATOM     14  C14 UNL     1     159.806 157.131 165.713  0.00  0.00    +0.000 A 
ENDBRANCH   1  11
BRANCH   5  15
ATOM     15  N2  UNL     1     152.383 159.270 169.879  0.00  0.00    +0.000 N 
ATOM     16  C10 UNL     1     152.348 160.015 170.975  0.00  0.00    +0.000 A 
ATOM     17  C11 UNL     1     151.343 159.633 171.811  0.00  0.00    +0.000 A 
ATOM     18  N3  UNL     1     150.727 158.588 171.197  0.00  0.00    +0.000 NA
ATOM     19  C12 UNL     1     151.375 158.382 170.004  0.00  0.00    +0.000 A 
ENDBRANCH   5  15
BRANCH   5  20
ATOM     20  C9  UNL     1     152.953 160.115 167.662  0.00  0.00    +0.000 C 
ATOM     21  N1  UNL     1     152.655 160.766 166.661  0.00  0.00    +0.000 NA
ENDBRANCH   5  20
TORSDOF 3
ENDMDL
MODEL 9
REMARK VINA RESULT:      -4.5      2.158      3.164
REMARK  Name = ./3D_structures\o32_MMV1782224_3D.pdb
REMARK  3 active torsions:
REMARK  status: ('A' for Active; 'I' for Inactive)
REMARK    1  A    between atoms: C4_5  and  C5_6
REMARK    2  A    between atoms: C8_10  and  C9_11
REMARK    3  A    between atoms: C8_10  and  N2_13
REMARK                            x       y       z     vdW  Elec       q    Type
REMARK                         _______ _______ _______ _____ _____    ______ ____
ROOT
ATOM      1  C5  UNL     1     153.236 160.383 169.093  0.00  0.00    +0.000 C 
ATOM      2  C6  UNL     1     152.278 159.926 170.060  0.00  0.00    +0.000 C 
ATOM      3  S1  UNL     1     151.232 161.368 170.564  0.00  0.00    +0.000 S 
ATOM      4  C7  UNL     1     151.249 162.330 169.121  0.00  0.00    +0.000 C 
ATOM      5  C8  UNL     1     150.466 163.223 168.541  0.00  0.00    +0.000 C 
ATOM      6  S2  UNL     1     152.904 162.008 168.433  0.00  0.00    +0.000 S 
ENDROOT
BRANCH   1  11
ATOM      7 CL1  UNL     1     158.857 158.320 169.503  0.00  0.00    +0.000 Cl
ATOM      8  C1  UNL     1     157.238 158.971 169.316  0.00  0.00    +0.000 A 
ATOM      9  C2  UNL     1     156.768 159.866 170.289  0.00  0.00    +0.000 A 
ATOM     10  C3  UNL     1     155.483 160.391 170.189  0.00  0.00    +0.000 A 
ATOM     11  C4  UNL     1     154.640 160.030 169.121  0.00  0.00    +0.000 A 
ATOM     12  C13 UNL     1     155.142 159.135 168.160  0.00  0.00    +0.000 A 
ATOM     13 CL2  UNL     1     154.139 158.689 166.769  0.00  0.00    +0.000 Cl
ATOM     14  C14 UNL     1     156.405 158.620 168.257  0.00  0.00    +0.000 A 
ENDBRANCH   1  11
BRANCH   5  15
ATOM     15  N2  UNL     1     149.287 163.648 169.196  0.00  0.00    +0.000 N 
ATOM     16  C10 UNL     1     148.056 163.178 169.055  0.00  0.00    +0.000 A 
ATOM     17  C11 UNL     1     147.166 163.860 169.827  0.00  0.00    +0.000 A 
ATOM     18  N3  UNL     1     147.889 164.810 170.478  0.00  0.00    +0.000 NA
ATOM     19  C12 UNL     1     149.196 164.661 170.084  0.00  0.00    +0.000 A 
ENDBRANCH   5  15
BRANCH   5  20
ATOM     20  C9  UNL     1     150.814 163.815 167.300  0.00  0.00    +0.000 C 
ATOM     21  N1  UNL     1     151.123 164.310 166.216  0.00  0.00    +0.000 NA
ENDBRANCH   5  20
TORSDOF 3
ENDMDL
