MODEL 1
REMARK VINA RESULT:      -6.5      0.000      0.000
REMARK  Name = ./3D_structures\o34_MMV1782218_3D.pdb
REMARK  1 active torsions:
REMARK  status: ('A' for Active; 'I' for Inactive)
REMARK    1  A    between atoms: C4_5  and  C5_6
REMARK                            x       y       z     vdW  Elec       q    Type
REMARK                         _______ _______ _______ _____ _____    ______ ____
ROOT
ATOM      1  C5  UNL     1     155.600 157.801 167.485  0.00  0.00    +0.000 C 
ATOM      2  O1  UNL     1     154.465 157.223 167.456  0.00  0.00    +0.000 OA
ATOM      3  N1  UNL     1     155.837 158.675 168.584  0.00  0.00    +0.000 N 
ATOM      4  C6  UNL     1     154.845 158.892 169.604  0.00  0.00    +0.000 C 
ATOM      5  O2  UNL     1     153.763 158.276 169.481  0.00  0.00    +0.000 OA
ATOM      6  N2  UNL     1     155.099 159.766 170.689  0.00  0.00    +0.000 N 
ATOM      7  C7  UNL     1     156.394 160.386 170.795  0.00  0.00    +0.000 C 
ATOM      8  C8  UNL     1     156.663 160.944 172.170  0.00  0.00    +0.000 C 
ATOM      9  C9  UNL     1     155.940 160.169 173.267  0.00  0.00    +0.000 C 
ATOM     10  C10 UNL     1     154.504 160.226 172.967  0.00  0.00    +0.000 A 
ATOM     11  C11 UNL     1     153.553 160.474 173.925  0.00  0.00    +0.000 A 
ATOM     12  C12 UNL     1     152.191 160.524 173.595  0.00  0.00    +0.000 A 
ATOM     13  C13 UNL     1     151.826 160.318 172.288  0.00  0.00    +0.000 A 
ATOM     14  C14 UNL     1     152.776 160.067 171.307  0.00  0.00    +0.000 A 
ATOM     15  C15 UNL     1     154.109 160.024 171.665  0.00  0.00    +0.000 A 
ATOM     16  H3  UNL     1     156.737 159.184 168.679  0.00  0.00    +0.000 HD
ENDROOT
BRANCH   1  21
ATOM     17 CL1  UNL     1     159.830 156.683 163.343  0.00  0.00    +0.000 Cl
ATOM     18  C1  UNL     1     158.601 157.014 164.540  0.00  0.00    +0.000 A 
ATOM     19  C2  UNL     1     158.438 156.212 165.644  0.00  0.00    +0.000 A 
ATOM     20  C3  UNL     1     157.459 156.490 166.583  0.00  0.00    +0.000 A 
ATOM     21  C4  UNL     1     156.604 157.580 166.452  0.00  0.00    +0.000 A 
ATOM     22  C16 UNL     1     156.775 158.374 165.348  0.00  0.00    +0.000 A 
ATOM     23 CL2  UNL     1     155.729 159.753 165.139  0.00  0.00    +0.000 Cl
ATOM     24  C17 UNL     1     157.745 158.108 164.409  0.00  0.00    +0.000 A 
ENDBRANCH   1  21
TORSDOF 1
ENDMDL
MODEL 2
REMARK VINA RESULT:      -6.5      2.785      8.180
REMARK  Name = ./3D_structures\o34_MMV1782218_3D.pdb
REMARK  1 active torsions:
REMARK  status: ('A' for Active; 'I' for Inactive)
REMARK    1  A    between atoms: C4_5  and  C5_6
REMARK                            x       y       z     vdW  Elec       q    Type
REMARK                         _______ _______ _______ _____ _____    ______ ____
ROOT
ATOM      1  C5  UNL     1     155.601 157.694 168.442  0.00  0.00    +0.000 C 
ATOM      2  O1  UNL     1     154.730 156.840 168.075  0.00  0.00    +0.000 OA
ATOM      3  N1  UNL     1     156.635 157.985 167.507  0.00  0.00    +0.000 N 
ATOM      4  C6  UNL     1     156.690 157.344 166.218  0.00  0.00    +0.000 C 
ATOM      5  O2  UNL     1     155.785 156.521 165.957  0.00  0.00    +0.000 OA
ATOM      6  N2  UNL     1     157.726 157.647 165.302  0.00  0.00    +0.000 N 
ATOM      7  C7  UNL     1     158.692 158.656 165.651  0.00  0.00    +0.000 C 
ATOM      8  C8  UNL     1     159.467 159.158 164.458  0.00  0.00    +0.000 C 
ATOM      9  C9  UNL     1     158.662 159.087 163.165  0.00  0.00    +0.000 C 
ATOM     10  C10 UNL     1     158.278 157.684 162.968  0.00  0.00    +0.000 A 
ATOM     11  C11 UNL     1     158.365 157.052 161.752  0.00  0.00    +0.000 A 
ATOM     12  C12 UNL     1     157.991 155.708 161.608  0.00  0.00    +0.000 A 
ATOM     13  C13 UNL     1     157.533 155.034 162.711  0.00  0.00    +0.000 A 
ATOM     14  C14 UNL     1     157.439 155.659 163.948  0.00  0.00    +0.000 A 
ATOM     15  C15 UNL     1     157.814 156.982 164.056  0.00  0.00    +0.000 A 
ATOM     16  H3  UNL     1     157.383 158.669 167.731  0.00  0.00    +0.000 HD
ENDROOT
BRANCH   1  21
ATOM     17 CL1  UNL     1     155.574 160.231 173.906  0.00  0.00    +0.000 Cl
ATOM     18  C1  UNL     1     155.575 159.500 172.319  0.00  0.00    +0.000 A 
ATOM     19  C2  UNL     1     156.510 158.557 171.963  0.00  0.00    +0.000 A 
ATOM     20  C3  UNL     1     156.494 157.989 170.700  0.00  0.00    +0.000 A 
ATOM     21  C4  UNL     1     155.545 158.342 169.747  0.00  0.00    +0.000 A 
ATOM     22  C16 UNL     1     154.618 159.281 170.112  0.00  0.00    +0.000 A 
ATOM     23 CL2  UNL     1     153.406 159.757 168.953  0.00  0.00    +0.000 Cl
ATOM     24  C17 UNL     1     154.622 159.854 171.364  0.00  0.00    +0.000 A 
ENDBRANCH   1  21
TORSDOF 1
ENDMDL
MODEL 3
REMARK VINA RESULT:      -6.3      2.316      3.693
REMARK  Name = ./3D_structures\o34_MMV1782218_3D.pdb
REMARK  1 active torsions:
REMARK  status: ('A' for Active; 'I' for Inactive)
REMARK    1  A    between atoms: C4_5  and  C5_6
REMARK                            x       y       z     vdW  Elec       q    Type
REMARK                         _______ _______ _______ _____ _____    ______ ____
ROOT
ATOM      1  C5  UNL     1     158.396 156.817 166.170  0.00  0.00    +0.000 C 
ATOM      2  O1  UNL     1     159.425 157.426 166.611  0.00  0.00    +0.000 OA
ATOM      3  N1  UNL     1     157.208 156.939 166.944  0.00  0.00    +0.000 N 
ATOM      4  C6  UNL     1     157.175 157.710 168.160  0.00  0.00    +0.000 C 
ATOM      5  O2  UNL     1     158.241 158.269 168.505  0.00  0.00    +0.000 OA
ATOM      6  N2  UNL     1     155.984 157.820 168.917  0.00  0.00    +0.000 N 
ATOM      7  C7  UNL     1     154.782 157.203 168.419  0.00  0.00    +0.000 C 
ATOM      8  C8  UNL     1     153.536 157.729 169.086  0.00  0.00    +0.000 C 
ATOM      9  C9  UNL     1     153.685 159.176 169.545  0.00  0.00    +0.000 C 
ATOM     10  C10 UNL     1     154.819 159.223 170.476  0.00  0.00    +0.000 A 
ATOM     11  C11 UNL     1     154.783 159.920 171.658  0.00  0.00    +0.000 A 
ATOM     12  C12 UNL     1     155.888 159.936 172.521  0.00  0.00    +0.000 A 
ATOM     13  C13 UNL     1     157.012 159.237 172.160  0.00  0.00    +0.000 A 
ATOM     14  C14 UNL     1     157.063 158.527 170.967  0.00  0.00    +0.000 A 
ATOM     15  C15 UNL     1     155.959 158.532 170.139  0.00  0.00    +0.000 A 
ATOM     16  H3  UNL     1     156.328 156.472 166.652  0.00  0.00    +0.000 HD
ENDROOT
BRANCH   1  21
ATOM     17 CL1  UNL     1     158.589 153.384 161.223  0.00  0.00    +0.000 Cl
ATOM     18  C1  UNL     1     158.532 154.387 162.652  0.00  0.00    +0.000 A 
ATOM     19  C2  UNL     1     158.741 153.863 163.906  0.00  0.00    +0.000 A 
ATOM     20  C3  UNL     1     158.692 154.674 165.028  0.00  0.00    +0.000 A 
ATOM     21  C4  UNL     1     158.431 156.037 164.939  0.00  0.00    +0.000 A 
ATOM     22  C16 UNL     1     158.224 156.549 163.685  0.00  0.00    +0.000 A 
ATOM     23 CL2  UNL     1     157.893 158.252 163.520  0.00  0.00    +0.000 Cl
ATOM     24  C17 UNL     1     158.271 155.754 162.562  0.00  0.00    +0.000 A 
ENDBRANCH   1  21
TORSDOF 1
ENDMDL
MODEL 4
REMARK VINA RESULT:      -6.3      5.800      8.729
REMARK  Name = ./3D_structures\o34_MMV1782218_3D.pdb
REMARK  1 active torsions:
REMARK  status: ('A' for Active; 'I' for Inactive)
REMARK    1  A    between atoms: C4_5  and  C5_6
REMARK                            x       y       z     vdW  Elec       q    Type
REMARK                         _______ _______ _______ _____ _____    ______ ____
ROOT
ATOM      1  C5  UNL     1     149.581 162.453 168.207  0.00  0.00    +0.000 C 
ATOM      2  O1  UNL     1     149.235 161.909 169.306  0.00  0.00    +0.000 OA
ATOM      3  N1  UNL     1     150.791 161.983 167.622  0.00  0.00    +0.000 N 
ATOM      4  C6  UNL     1     151.577 160.948 168.242  0.00  0.00    +0.000 C 
ATOM      5  O2  UNL     1     151.148 160.480 169.320  0.00  0.00    +0.000 OA
ATOM      6  N2  UNL     1     152.778 160.493 167.645  0.00  0.00    +0.000 N 
ATOM      7  C7  UNL     1     153.170 161.034 166.370  0.00  0.00    +0.000 C 
ATOM      8  C8  UNL     1     154.211 160.193 165.674  0.00  0.00    +0.000 C 
ATOM      9  C9  UNL     1     154.104 158.715 166.033  0.00  0.00    +0.000 C 
ATOM     10  C10 UNL     1     154.255 158.609 167.490  0.00  0.00    +0.000 A 
ATOM     11  C11 UNL     1     155.035 157.653 168.090  0.00  0.00    +0.000 A 
ATOM     12  C12 UNL     1     155.155 157.588 169.485  0.00  0.00    +0.000 A 
ATOM     13  C13 UNL     1     154.472 158.505 170.244  0.00  0.00    +0.000 A 
ATOM     14  C14 UNL     1     153.678 159.480 169.652  0.00  0.00    +0.000 A 
ATOM     15  C15 UNL     1     153.581 159.515 168.276  0.00  0.00    +0.000 A 
ATOM     16  H3  UNL     1     151.141 162.376 166.727  0.00  0.00    +0.000 HD
ENDROOT
BRANCH   1  21
ATOM     17 CL1  UNL     1     146.492 166.936 165.628  0.00  0.00    +0.000 Cl
ATOM     18  C1  UNL     1     147.381 165.631 166.375  0.00  0.00    +0.000 A 
ATOM     19  C2  UNL     1     148.696 165.777 166.747  0.00  0.00    +0.000 A 
ATOM     20  C3  UNL     1     149.384 164.731 167.339  0.00  0.00    +0.000 A 
ATOM     21  C4  UNL     1     148.784 163.500 167.580  0.00  0.00    +0.000 A 
ATOM     22  C16 UNL     1     147.473 163.365 167.207  0.00  0.00    +0.000 A 
ATOM     23 CL2  UNL     1     146.675 161.841 167.489  0.00  0.00    +0.000 Cl
ATOM     24  C17 UNL     1     146.778 164.397 166.618  0.00  0.00    +0.000 A 
ENDBRANCH   1  21
TORSDOF 1
ENDMDL
MODEL 5
REMARK VINA RESULT:      -6.2      2.231      3.365
REMARK  Name = ./3D_structures\o34_MMV1782218_3D.pdb
REMARK  1 active torsions:
REMARK  status: ('A' for Active; 'I' for Inactive)
REMARK    1  A    between atoms: C4_5  and  C5_6
REMARK                            x       y       z     vdW  Elec       q    Type
REMARK                         _______ _______ _______ _____ _____    ______ ____
ROOT
ATOM      1  C5  UNL     1     157.414 155.982 165.703  0.00  0.00    +0.000 C 
ATOM      2  O1  UNL     1     156.237 155.911 165.220  0.00  0.00    +0.000 OA
ATOM      3  N1  UNL     1     157.560 156.727 166.907  0.00  0.00    +0.000 N 
ATOM      4  C6  UNL     1     156.435 157.363 167.543  0.00  0.00    +0.000 C 
ATOM      5  O2  UNL     1     155.322 157.231 166.987  0.00  0.00    +0.000 OA
ATOM      6  N2  UNL     1     156.601 158.099 168.741  0.00  0.00    +0.000 N 
ATOM      7  C7  UNL     1     157.902 158.148 169.355  0.00  0.00    +0.000 C 
ATOM      8  C8  UNL     1     157.852 158.600 170.793  0.00  0.00    +0.000 C 
ATOM      9  C9  UNL     1     156.543 158.223 171.480  0.00  0.00    +0.000 C 
ATOM     10  C10 UNL     1     155.455 158.843 170.713  0.00  0.00    +0.000 A 
ATOM     11  C11 UNL     1     154.400 159.489 171.308  0.00  0.00    +0.000 A 
ATOM     12  C12 UNL     1     153.383 160.072 170.539  0.00  0.00    +0.000 A 
ATOM     13  C13 UNL     1     153.463 159.983 169.172  0.00  0.00    +0.000 A 
ATOM     14  C14 UNL     1     154.525 159.333 168.555  0.00  0.00    +0.000 A 
ATOM     15  C15 UNL     1     155.509 158.770 169.341  0.00  0.00    +0.000 A 
ATOM     16  H3  UNL     1     158.487 156.832 167.363  0.00  0.00    +0.000 HD
ENDROOT
BRANCH   1  21
ATOM     17 CL1  UNL     1     161.988 153.097 163.047  0.00  0.00    +0.000 Cl
ATOM     18  C1  UNL     1     160.666 153.942 163.817  0.00  0.00    +0.000 A 
ATOM     19  C2  UNL     1     159.511 153.290 164.179  0.00  0.00    +0.000 A 
ATOM     20  C3  UNL     1     158.474 153.975 164.789  0.00  0.00    +0.000 A 
ATOM     21  C4  UNL     1     158.552 155.338 165.058  0.00  0.00    +0.000 A 
ATOM     22  C16 UNL     1     159.707 155.978 164.694  0.00  0.00    +0.000 A 
ATOM     23 CL2  UNL     1     159.854 157.686 165.011  0.00  0.00    +0.000 Cl
ATOM     24  C17 UNL     1     160.746 155.307 164.088  0.00  0.00    +0.000 A 
ENDBRANCH   1  21
TORSDOF 1
ENDMDL
MODEL 6
REMARK VINA RESULT:      -6.1      5.209      6.850
REMARK  Name = ./3D_structures\o34_MMV1782218_3D.pdb
REMARK  1 active torsions:
REMARK  status: ('A' for Active; 'I' for Inactive)
REMARK    1  A    between atoms: C4_5  and  C5_6
REMARK                            x       y       z     vdW  Elec       q    Type
REMARK                         _______ _______ _______ _____ _____    ______ ____
ROOT
ATOM      1  C5  UNL     1     161.741 159.279 166.888  0.00  0.00    +0.000 C 
ATOM      2  O1  UNL     1     161.568 159.410 165.633  0.00  0.00    +0.000 OA
ATOM      3  N1  UNL     1     160.572 159.054 167.668  0.00  0.00    +0.000 N 
ATOM      4  C6  UNL     1     159.266 158.980 167.067  0.00  0.00    +0.000 C 
ATOM      5  O2  UNL     1     159.206 159.121 165.825  0.00  0.00    +0.000 OA
ATOM      6  N2  UNL     1     158.114 158.756 167.860  0.00  0.00    +0.000 N 
ATOM      7  C7  UNL     1     158.274 158.535 169.273  0.00  0.00    +0.000 C 
ATOM      8  C8  UNL     1     157.054 157.918 169.909  0.00  0.00    +0.000 C 
ATOM      9  C9  UNL     1     156.273 157.035 168.941  0.00  0.00    +0.000 C 
ATOM     10  C10 UNL     1     155.882 157.878 167.803  0.00  0.00    +0.000 A 
ATOM     11  C11 UNL     1     154.627 157.845 167.249  0.00  0.00    +0.000 A 
ATOM     12  C12 UNL     1     154.294 158.669 166.165  0.00  0.00    +0.000 A 
ATOM     13  C13 UNL     1     155.253 159.513 165.665  0.00  0.00    +0.000 A 
ATOM     14  C14 UNL     1     156.527 159.559 166.215  0.00  0.00    +0.000 A 
ATOM     15  C15 UNL     1     156.823 158.734 167.281  0.00  0.00    +0.000 A 
ATOM     16  H3  UNL     1     160.630 158.938 168.698  0.00  0.00    +0.000 HD
ENDROOT
BRANCH   1  21
ATOM     17 CL1  UNL     1     167.176 159.845 169.425  0.00  0.00    +0.000 Cl
ATOM     18  C1  UNL     1     165.601 159.672 168.688  0.00  0.00    +0.000 A 
ATOM     19  C2  UNL     1     164.779 160.755 168.489  0.00  0.00    +0.000 A 
ATOM     20  C3  UNL     1     163.534 160.599 167.903  0.00  0.00    +0.000 A 
ATOM     21  C4  UNL     1     163.064 159.354 167.496  0.00  0.00    +0.000 A 
ATOM     22  C16 UNL     1     163.892 158.282 167.698  0.00  0.00    +0.000 A 
ATOM     23 CL2  UNL     1     163.350 156.700 167.204  0.00  0.00    +0.000 Cl
ATOM     24  C17 UNL     1     165.132 158.424 168.279  0.00  0.00    +0.000 A 
ENDBRANCH   1  21
TORSDOF 1
ENDMDL
MODEL 7
REMARK VINA RESULT:      -6.0      5.977      7.664
REMARK  Name = ./3D_structures\o34_MMV1782218_3D.pdb
REMARK  1 active torsions:
REMARK  status: ('A' for Active; 'I' for Inactive)
REMARK    1  A    between atoms: C4_5  and  C5_6
REMARK                            x       y       z     vdW  Elec       q    Type
REMARK                         _______ _______ _______ _____ _____    ______ ____
ROOT
ATOM      1  C5  UNL     1     151.330 160.605 169.612  0.00  0.00    +0.000 C 
ATOM      2  O1  UNL     1     150.337 160.532 170.406  0.00  0.00    +0.000 OA
ATOM      3  N1  UNL     1     151.211 161.526 168.533  0.00  0.00    +0.000 N 
ATOM      4  C6  UNL     1     150.030 162.330 168.353  0.00  0.00    +0.000 C 
ATOM      5  O2  UNL     1     149.112 162.182 169.191  0.00  0.00    +0.000 OA
ATOM      6  N2  UNL     1     149.930 163.241 167.274  0.00  0.00    +0.000 N 
ATOM      7  C7  UNL     1     151.057 163.402 166.392  0.00  0.00    +0.000 C 
ATOM      8  C8  UNL     1     150.974 164.661 165.564  0.00  0.00    +0.000 C 
ATOM      9  C9  UNL     1     150.215 165.778 166.272  0.00  0.00    +0.000 C 
ATOM     10  C10 UNL     1     148.868 165.271 166.564  0.00  0.00    +0.000 A 
ATOM     11  C11 UNL     1     147.733 166.015 166.357  0.00  0.00    +0.000 A 
ATOM     12  C12 UNL     1     146.464 165.492 166.645  0.00  0.00    +0.000 A 
ATOM     13  C13 UNL     1     146.379 164.216 167.141  0.00  0.00    +0.000 A 
ATOM     14  C14 UNL     1     147.518 163.451 167.356  0.00  0.00    +0.000 A 
ATOM     15  C15 UNL     1     148.752 163.995 167.063  0.00  0.00    +0.000 A 
ATOM     16  H3  UNL     1     151.977 161.643 167.841  0.00  0.00    +0.000 HD
ENDROOT
BRANCH   1  21
ATOM     17 CL1  UNL     1     156.174 157.071 170.195  0.00  0.00    +0.000 Cl
ATOM     18  C1  UNL     1     154.773 158.101 170.032  0.00  0.00    +0.000 A 
ATOM     19  C2  UNL     1     153.742 157.782 169.180  0.00  0.00    +0.000 A 
ATOM     20  C3  UNL     1     152.638 158.611 169.064  0.00  0.00    +0.000 A 
ATOM     21  C4  UNL     1     152.525 159.790 169.794  0.00  0.00    +0.000 A 
ATOM     22  C16 UNL     1     153.557 160.098 170.640  0.00  0.00    +0.000 A 
ATOM     23 CL2  UNL     1     153.462 161.565 171.578  0.00  0.00    +0.000 Cl
ATOM     24  C17 UNL     1     154.659 159.282 170.765  0.00  0.00    +0.000 A 
ENDBRANCH   1  21
TORSDOF 1
ENDMDL
MODEL 8
REMARK VINA RESULT:      -5.9      4.420      7.858
REMARK  Name = ./3D_structures\o34_MMV1782218_3D.pdb
REMARK  1 active torsions:
REMARK  status: ('A' for Active; 'I' for Inactive)
REMARK    1  A    between atoms: C4_5  and  C5_6
REMARK                            x       y       z     vdW  Elec       q    Type
REMARK                         _______ _______ _______ _____ _____    ______ ____
ROOT
ATOM      1  C5  UNL     1     151.600 161.246 166.722  0.00  0.00    +0.000 C 
ATOM      2  O1  UNL     1     151.995 161.346 165.515  0.00  0.00    +0.000 OA
ATOM      3  N1  UNL     1     152.333 160.357 167.557  0.00  0.00    +0.000 N 
ATOM      4  C6  UNL     1     153.460 159.611 167.060  0.00  0.00    +0.000 C 
ATOM      5  O2  UNL     1     153.767 159.782 165.859  0.00  0.00    +0.000 OA
ATOM      6  N2  UNL     1     154.178 158.731 167.906  0.00  0.00    +0.000 N 
ATOM      7  C7  UNL     1     153.805 158.641 169.294  0.00  0.00    +0.000 C 
ATOM      8  C8  UNL     1     154.875 158.004 170.145  0.00  0.00    +0.000 C 
ATOM      9  C9  UNL     1     156.279 158.251 169.602  0.00  0.00    +0.000 C 
ATOM     10  C10 UNL     1     156.320 157.704 168.239  0.00  0.00    +0.000 A 
ATOM     11  C11 UNL     1     157.371 156.957 167.769  0.00  0.00    +0.000 A 
ATOM     12  C12 UNL     1     157.370 156.450 166.462  0.00  0.00    +0.000 A 
ATOM     13  C13 UNL     1     156.291 156.717 165.657  0.00  0.00    +0.000 A 
ATOM     14  C14 UNL     1     155.220 157.472 166.118  0.00  0.00    +0.000 A 
ATOM     15  C15 UNL     1     155.253 157.957 167.410  0.00  0.00    +0.000 A 
ATOM     16  H3  UNL     1     152.073 160.220 168.553  0.00  0.00    +0.000 HD
ENDROOT
BRANCH   1  21
ATOM     17 CL1  UNL     1     146.744 164.151 168.790  0.00  0.00    +0.000 Cl
ATOM     18  C1  UNL     1     148.157 163.316 168.190  0.00  0.00    +0.000 A 
ATOM     19  C2  UNL     1     148.129 161.972 167.903  0.00  0.00    +0.000 A 
ATOM     20  C3  UNL     1     149.259 161.327 167.428  0.00  0.00    +0.000 A 
ATOM     21  C4  UNL     1     150.458 162.001 167.224  0.00  0.00    +0.000 A 
ATOM     22  C16 UNL     1     150.475 163.340 167.513  0.00  0.00    +0.000 A 
ATOM     23 CL2  UNL     1     151.955 164.230 167.273  0.00  0.00    +0.000 Cl
ATOM     24  C17 UNL     1     149.358 163.993 167.985  0.00  0.00    +0.000 A 
ENDBRANCH   1  21
TORSDOF 1
ENDMDL
MODEL 9
REMARK VINA RESULT:      -5.9      3.122      4.409
REMARK  Name = ./3D_structures\o34_MMV1782218_3D.pdb
REMARK  1 active torsions:
REMARK  status: ('A' for Active; 'I' for Inactive)
REMARK    1  A    between atoms: C4_5  and  C5_6
REMARK                            x       y       z     vdW  Elec       q    Type
REMARK                         _______ _______ _______ _____ _____    ______ ____
ROOT
ATOM      1  C5  UNL     1     158.223 155.724 165.095  0.00  0.00    +0.000 C 
ATOM      2  O1  UNL     1     157.126 155.447 164.511  0.00  0.00    +0.000 OA
ATOM      3  N1  UNL     1     158.127 156.488 166.293  0.00  0.00    +0.000 N 
ATOM      4  C6  UNL     1     156.856 156.921 166.812  0.00  0.00    +0.000 C 
ATOM      5  O2  UNL     1     155.838 156.594 166.162  0.00  0.00    +0.000 OA
ATOM      6  N2  UNL     1     156.780 157.680 168.005  0.00  0.00    +0.000 N 
ATOM      7  C7  UNL     1     157.992 157.958 168.732  0.00  0.00    +0.000 C 
ATOM      8  C8  UNL     1     157.733 158.401 170.150  0.00  0.00    +0.000 C 
ATOM      9  C9  UNL     1     156.452 157.804 170.725  0.00  0.00    +0.000 C 
ATOM     10  C10 UNL     1     155.348 158.222 169.852  0.00  0.00    +0.000 A 
ATOM     11  C11 UNL     1     154.147 158.676 170.337  0.00  0.00    +0.000 A 
ATOM     12  C12 UNL     1     153.118 159.068 169.468  0.00  0.00    +0.000 A 
ATOM     13  C13 UNL     1     153.337 158.989 168.116  0.00  0.00    +0.000 A 
ATOM     14  C14 UNL     1     154.548 158.532 167.610  0.00  0.00    +0.000 A 
ATOM     15  C15 UNL     1     155.539 158.153 168.492  0.00  0.00    +0.000 A 
ATOM     16  H3  UNL     1     158.976 156.756 166.827  0.00  0.00    +0.000 HD
ENDROOT
BRANCH   1  21
ATOM     17 CL1  UNL     1     163.621 154.155 162.929  0.00  0.00    +0.000 Cl
ATOM     18  C1  UNL     1     162.053 154.602 163.557  0.00  0.00    +0.000 A 
ATOM     19  C2  UNL     1     161.752 155.904 163.876  0.00  0.00    +0.000 A 
ATOM     20  C3  UNL     1     160.503 156.240 164.372  0.00  0.00    +0.000 A 
ATOM     21  C4  UNL     1     159.510 155.286 164.569  0.00  0.00    +0.000 A 
ATOM     22  C16 UNL     1     159.820 153.991 164.246  0.00  0.00    +0.000 A 
ATOM     23 CL2  UNL     1     158.609 152.758 164.473  0.00  0.00    +0.000 Cl
ATOM     24  C17 UNL     1     161.058 153.645 163.752  0.00  0.00    +0.000 A 
ENDBRANCH   1  21
TORSDOF 1
ENDMDL
