MODEL 1
REMARK VINA RESULT:      -5.6      0.000      0.000
REMARK  Name = ./3D_structures\o38_MMV1782225_3D.pdb
REMARK  2 active torsions:
REMARK  status: ('A' for Active; 'I' for Inactive)
REMARK    1  A    between atoms: C2_3  and  N1_4
REMARK    2  A    between atoms: C3_5  and  C4_7
REMARK                            x       y       z     vdW  Elec       q    Type
REMARK                         _______ _______ _______ _____ _____    ______ ____
ROOT
ATOM      1  N1  UNL     1     151.454 141.573 161.458  0.00  0.00    +0.000 N 
ATOM      2  C3  UNL     1     151.588 142.859 160.909  0.00  0.00    +0.000 C 
ATOM      3  O1  UNL     1     152.706 143.411 160.862  0.00  0.00    +0.000 OA
ATOM      4  H1  UNL     1     150.482 141.131 161.482  0.00  0.00    +0.000 HD
ENDROOT
BRANCH   1   7
ATOM      5  F1  UNL     1     152.141 139.273 160.185  0.00  0.00    +0.000 F 
ATOM      6  C1  UNL     1     152.836 139.608 161.310  0.00  0.00    +0.000 A 
ATOM      7  C2  UNL     1     152.509 140.789 161.993  0.00  0.00    +0.000 A 
ATOM      8  N2  UNL     1     153.205 141.093 163.091  0.00  0.00    +0.000 N 
ATOM      9  C10 UNL     1     154.204 140.298 163.549  0.00  0.00    +0.000 A 
ATOM     10  O2  UNL     1     154.832 140.623 164.587  0.00  0.00    +0.000 OA
ATOM     11  N3  UNL     1     154.507 139.167 162.884  0.00  0.00    +0.000 NA
ATOM     12  C11 UNL     1     153.844 138.810 161.777  0.00  0.00    +0.000 A 
ATOM     13  H7  UNL     1     153.011 141.943 163.633  0.00  0.00    +0.000 HD
ENDBRANCH   1   7
BRANCH   2  14
ATOM     14  C4  UNL     1     150.449 143.614 160.372  0.00  0.00    +0.000 A 
ATOM     15  C5  UNL     1     149.929 144.696 161.070  0.00  0.00    +0.000 A 
ATOM     16  C6  UNL     1     148.851 145.432 160.582  0.00  0.00    +0.000 A 
ATOM     17  C7  UNL     1     148.282 145.083 159.378  0.00  0.00    +0.000 A 
ATOM     18  C8  UNL     1     148.804 144.011 158.692  0.00  0.00    +0.000 A 
ATOM     19  C9  UNL     1     149.884 143.266 159.173  0.00  0.00    +0.000 A 
ENDBRANCH   2  14
TORSDOF 2
ENDMDL
MODEL 2
REMARK VINA RESULT:      -5.3     18.700     19.935
REMARK  Name = ./3D_structures\o38_MMV1782225_3D.pdb
REMARK  2 active torsions:
REMARK  status: ('A' for Active; 'I' for Inactive)
REMARK    1  A    between atoms: C2_3  and  N1_4
REMARK    2  A    between atoms: C3_5  and  C4_7
REMARK                            x       y       z     vdW  Elec       q    Type
REMARK                         _______ _______ _______ _____ _____    ______ ____
ROOT
ATOM      1  N1  UNL     1     156.897 158.834 169.316  0.00  0.00    +0.000 N 
ATOM      2  C3  UNL     1     157.460 158.851 170.603  0.00  0.00    +0.000 C 
ATOM      3  O1  UNL     1     158.502 158.207 170.843  0.00  0.00    +0.000 OA
ATOM      4  H1  UNL     1     156.005 159.397 169.146  0.00  0.00    +0.000 HD
ENDROOT
BRANCH   1   7
ATOM      5  F1  UNL     1     155.295 157.030 168.066  0.00  0.00    +0.000 F 
ATOM      6  C1  UNL     1     156.557 157.204 167.578  0.00  0.00    +0.000 A 
ATOM      7  C2  UNL     1     157.411 158.128 168.198  0.00  0.00    +0.000 A 
ATOM      8  N2  UNL     1     158.641 158.278 167.700  0.00  0.00    +0.000 N 
ATOM      9  C10 UNL     1     159.071 157.570 166.627  0.00  0.00    +0.000 A 
ATOM     10  O2  UNL     1     160.237 157.745 166.192  0.00  0.00    +0.000 OA
ATOM     11  N3  UNL     1     158.240 156.686 166.041  0.00  0.00    +0.000 NA
ATOM     12  C11 UNL     1     156.996 156.492 166.496  0.00  0.00    +0.000 A 
ATOM     13  H7  UNL     1     159.311 158.939 168.111  0.00  0.00    +0.000 HD
ENDBRANCH   1   7
BRANCH   2  14
ATOM     14  C4  UNL     1     156.873 159.607 171.715  0.00  0.00    +0.000 A 
ATOM     15  C5  UNL     1     157.173 160.951 171.890  0.00  0.00    +0.000 A 
ATOM     16  C6  UNL     1     156.626 161.694 172.936  0.00  0.00    +0.000 A 
ATOM     17  C7  UNL     1     155.766 161.085 173.821  0.00  0.00    +0.000 A 
ATOM     18  C8  UNL     1     155.473 159.753 173.641  0.00  0.00    +0.000 A 
ATOM     19  C9  UNL     1     156.016 159.000 172.597  0.00  0.00    +0.000 A 
ENDBRANCH   2  14
TORSDOF 2
ENDMDL
MODEL 3
REMARK VINA RESULT:      -5.2     21.935     24.454
REMARK  Name = ./3D_structures\o38_MMV1782225_3D.pdb
REMARK  2 active torsions:
REMARK  status: ('A' for Active; 'I' for Inactive)
REMARK    1  A    between atoms: C2_3  and  N1_4
REMARK    2  A    between atoms: C3_5  and  C4_7
REMARK                            x       y       z     vdW  Elec       q    Type
REMARK                         _______ _______ _______ _____ _____    ______ ____
ROOT
ATOM      1  N1  UNL     1     146.803 164.146 166.706  0.00  0.00    +0.000 N 
ATOM      2  C3  UNL     1     147.455 164.099 167.950  0.00  0.00    +0.000 C 
ATOM      3  O1  UNL     1     147.249 164.986 168.803  0.00  0.00    +0.000 OA
ATOM      4  H1  UNL     1     147.003 163.370 166.000  0.00  0.00    +0.000 HD
ENDROOT
BRANCH   1   7
ATOM      5  F1  UNL     1     144.284 163.395 166.018  0.00  0.00    +0.000 F 
ATOM      6  C1  UNL     1     144.594 164.721 165.944  0.00  0.00    +0.000 A 
ATOM      7  C2  UNL     1     145.884 165.145 166.292  0.00  0.00    +0.000 A 
ATOM      8  N2  UNL     1     146.161 166.449 166.209  0.00  0.00    +0.000 N 
ATOM      9  C10 UNL     1     145.235 167.354 165.804  0.00  0.00    +0.000 A 
ATOM     10  O2  UNL     1     145.539 168.571 165.742  0.00  0.00    +0.000 OA
ATOM     11  N3  UNL     1     143.999 166.932 165.474  0.00  0.00    +0.000 NA
ATOM     12  C11 UNL     1     143.664 165.637 165.536  0.00  0.00    +0.000 A 
ATOM     13  H7  UNL     1     147.088 166.819 166.450  0.00  0.00    +0.000 HD
ENDBRANCH   1   7
BRANCH   2  14
ATOM     14  C4  UNL     1     148.395 163.032 168.311  0.00  0.00    +0.000 A 
ATOM     15  C5  UNL     1     149.385 163.255 169.260  0.00  0.00    +0.000 A 
ATOM     16  C6  UNL     1     150.288 162.259 169.624  0.00  0.00    +0.000 A 
ATOM     17  C7  UNL     1     150.203 161.019 169.034  0.00  0.00    +0.000 A 
ATOM     18  C8  UNL     1     149.220 160.804 168.096  0.00  0.00    +0.000 A 
ATOM     19  C9  UNL     1     148.310 161.797 167.722  0.00  0.00    +0.000 A 
ENDBRANCH   2  14
TORSDOF 2
ENDMDL
MODEL 4
REMARK VINA RESULT:      -5.2     15.723     17.045
REMARK  Name = ./3D_structures\o38_MMV1782225_3D.pdb
REMARK  2 active torsions:
REMARK  status: ('A' for Active; 'I' for Inactive)
REMARK    1  A    between atoms: C2_3  and  N1_4
REMARK    2  A    between atoms: C3_5  and  C4_7
REMARK                            x       y       z     vdW  Elec       q    Type
REMARK                         _______ _______ _______ _____ _____    ______ ____
ROOT
ATOM      1  N1  UNL     1     158.005 156.432 165.832  0.00  0.00    +0.000 N 
ATOM      2  C3  UNL     1     156.922 156.743 166.673  0.00  0.00    +0.000 C 
ATOM      3  O1  UNL     1     155.750 156.586 166.275  0.00  0.00    +0.000 OA
ATOM      4  H1  UNL     1     158.994 156.579 166.206  0.00  0.00    +0.000 HD
ENDROOT
BRANCH   1   7
ATOM      5  F1  UNL     1     158.594 158.091 163.762  0.00  0.00    +0.000 F 
ATOM      6  C1  UNL     1     158.216 156.814 163.466  0.00  0.00    +0.000 A 
ATOM      7  C2  UNL     1     157.906 155.930 164.509  0.00  0.00    +0.000 A 
ATOM      8  N2  UNL     1     157.538 154.687 164.191  0.00  0.00    +0.000 N 
ATOM      9  C10 UNL     1     157.463 154.270 162.902  0.00  0.00    +0.000 A 
ATOM     10  O2  UNL     1     157.114 153.090 162.649  0.00  0.00    +0.000 OA
ATOM     11  N3  UNL     1     157.765 155.129 161.910  0.00  0.00    +0.000 NA
ATOM     12  C11 UNL     1     158.138 156.389 162.169  0.00  0.00    +0.000 A 
ATOM     13  H7  UNL     1     157.299 153.995 164.910  0.00  0.00    +0.000 HD
ENDBRANCH   1   7
BRANCH   2  14
ATOM     14  C4  UNL     1     157.100 157.260 168.035  0.00  0.00    +0.000 A 
ATOM     15  C5  UNL     1     158.253 157.952 168.382  0.00  0.00    +0.000 A 
ATOM     16  C6  UNL     1     158.446 158.457 169.667  0.00  0.00    +0.000 A 
ATOM     17  C7  UNL     1     157.473 158.268 170.621  0.00  0.00    +0.000 A 
ATOM     18  C8  UNL     1     156.333 157.583 170.271  0.00  0.00    +0.000 A 
ATOM     19  C9  UNL     1     156.130 157.072 168.986  0.00  0.00    +0.000 A 
ENDBRANCH   2  14
TORSDOF 2
ENDMDL
MODEL 5
REMARK VINA RESULT:      -5.1     19.084     19.531
REMARK  Name = ./3D_structures\o38_MMV1782225_3D.pdb
REMARK  2 active torsions:
REMARK  status: ('A' for Active; 'I' for Inactive)
REMARK    1  A    between atoms: C2_3  and  N1_4
REMARK    2  A    between atoms: C3_5  and  C4_7
REMARK                            x       y       z     vdW  Elec       q    Type
REMARK                         _______ _______ _______ _____ _____    ______ ____
ROOT
ATOM      1  N1  UNL     1     154.861 160.039 169.066  0.00  0.00    +0.000 N 
ATOM      2  C3  UNL     1     154.256 159.444 167.946  0.00  0.00    +0.000 C 
ATOM      3  O1  UNL     1     154.581 158.293 167.591  0.00  0.00    +0.000 OA
ATOM      4  H1  UNL     1     154.558 161.025 169.342  0.00  0.00    +0.000 HD
ENDROOT
BRANCH   1   7
ATOM      5  F1  UNL     1     154.308 159.621 171.694  0.00  0.00    +0.000 F 
ATOM      6  C1  UNL     1     155.534 159.240 171.234  0.00  0.00    +0.000 A 
ATOM      7  C2  UNL     1     155.854 159.440 169.883  0.00  0.00    +0.000 A 
ATOM      8  N2  UNL     1     157.062 159.059 169.460  0.00  0.00    +0.000 N 
ATOM      9  C10 UNL     1     157.968 158.492 170.296  0.00  0.00    +0.000 A 
ATOM     10  O2  UNL     1     159.092 158.148 169.854  0.00  0.00    +0.000 OA
ATOM     11  N3  UNL     1     157.647 158.305 171.590  0.00  0.00    +0.000 NA
ATOM     12  C11 UNL     1     156.451 158.668 172.072  0.00  0.00    +0.000 A 
ATOM     13  H7  UNL     1     157.353 159.180 168.484  0.00  0.00    +0.000 HD
ENDBRANCH   1   7
BRANCH   2  14
ATOM     14  C4  UNL     1     153.231 160.124 167.145  0.00  0.00    +0.000 A 
ATOM     15  C5  UNL     1     152.134 160.715 167.759  0.00  0.00    +0.000 A 
ATOM     16  C6  UNL     1     151.148 161.370 167.023  0.00  0.00    +0.000 A 
ATOM     17  C7  UNL     1     151.258 161.437 165.653  0.00  0.00    +0.000 A 
ATOM     18  C8  UNL     1     152.347 160.851 165.052  0.00  0.00    +0.000 A 
ATOM     19  C9  UNL     1     153.341 160.191 165.780  0.00  0.00    +0.000 A 
ENDBRANCH   2  14
TORSDOF 2
ENDMDL
MODEL 6
REMARK VINA RESULT:      -5.1     15.766     17.062
REMARK  Name = ./3D_structures\o38_MMV1782225_3D.pdb
REMARK  2 active torsions:
REMARK  status: ('A' for Active; 'I' for Inactive)
REMARK    1  A    between atoms: C2_3  and  N1_4
REMARK    2  A    between atoms: C3_5  and  C4_7
REMARK                            x       y       z     vdW  Elec       q    Type
REMARK                         _______ _______ _______ _____ _____    ______ ____
ROOT
ATOM      1  N1  UNL     1     158.206 156.486 165.969  0.00  0.00    +0.000 N 
ATOM      2  C3  UNL     1     157.051 156.786 166.711  0.00  0.00    +0.000 C 
ATOM      3  O1  UNL     1     155.921 156.659 166.197  0.00  0.00    +0.000 OA
ATOM      4  H1  UNL     1     159.156 156.606 166.441  0.00  0.00    +0.000 HD
ENDROOT
BRANCH   1   7
ATOM      5  F1  UNL     1     158.688 153.853 165.499  0.00  0.00    +0.000 F 
ATOM      6  C1  UNL     1     158.481 154.663 164.421  0.00  0.00    +0.000 A 
ATOM      7  C2  UNL     1     158.229 156.028 164.626  0.00  0.00    +0.000 A 
ATOM      8  N2  UNL     1     158.030 156.798 163.554  0.00  0.00    +0.000 N 
ATOM      9  C10 UNL     1     158.067 156.295 162.294  0.00  0.00    +0.000 A 
ATOM     10  O2  UNL     1     157.874 157.057 161.314  0.00  0.00    +0.000 OA
ATOM     11  N3  UNL     1     158.310 154.983 162.112  0.00  0.00    +0.000 NA
ATOM     12  C11 UNL     1     158.517 154.162 163.150  0.00  0.00    +0.000 A 
ATOM     13  H7  UNL     1     157.842 157.803 163.640  0.00  0.00    +0.000 HD
ENDBRANCH   1   7
BRANCH   2  14
ATOM     14  C4  UNL     1     157.102 157.256 168.100  0.00  0.00    +0.000 A 
ATOM     15  C5  UNL     1     158.203 157.963 168.565  0.00  0.00    +0.000 A 
ATOM     16  C6  UNL     1     158.276 158.424 169.879  0.00  0.00    +0.000 A 
ATOM     17  C7  UNL     1     157.234 158.176 170.742  0.00  0.00    +0.000 A 
ATOM     18  C8  UNL     1     156.146 157.477 170.275  0.00  0.00    +0.000 A 
ATOM     19  C9  UNL     1     156.063 157.009 168.960  0.00  0.00    +0.000 A 
ENDBRANCH   2  14
TORSDOF 2
ENDMDL
MODEL 7
REMARK VINA RESULT:      -5.0     18.501     19.867
REMARK  Name = ./3D_structures\o38_MMV1782225_3D.pdb
REMARK  2 active torsions:
REMARK  status: ('A' for Active; 'I' for Inactive)
REMARK    1  A    between atoms: C2_3  and  N1_4
REMARK    2  A    between atoms: C3_5  and  C4_7
REMARK                            x       y       z     vdW  Elec       q    Type
REMARK                         _______ _______ _______ _____ _____    ______ ____
ROOT
ATOM      1  N1  UNL     1     155.457 159.069 170.227  0.00  0.00    +0.000 N 
ATOM      2  C3  UNL     1     154.824 158.150 169.373  0.00  0.00    +0.000 C 
ATOM      3  O1  UNL     1     153.702 157.689 169.664  0.00  0.00    +0.000 OA
ATOM      4  H1  UNL     1     156.417 159.444 169.946  0.00  0.00    +0.000 HD
ENDROOT
BRANCH   1   7
ATOM      5  F1  UNL     1     157.030 159.005 172.441  0.00  0.00    +0.000 F 
ATOM      6  C1  UNL     1     155.770 159.509 172.573  0.00  0.00    +0.000 A 
ATOM      7  C2  UNL     1     154.930 159.558 171.450  0.00  0.00    +0.000 A 
ATOM      8  N2  UNL     1     153.701 160.056 171.607  0.00  0.00    +0.000 N 
ATOM      9  C10 UNL     1     153.258 160.507 172.807  0.00  0.00    +0.000 A 
ATOM     10  O2  UNL     1     152.094 160.968 172.908  0.00  0.00    +0.000 OA
ATOM     11  N3  UNL     1     154.075 160.454 173.876  0.00  0.00    +0.000 NA
ATOM     12  C11 UNL     1     155.318 159.965 173.780  0.00  0.00    +0.000 A 
ATOM     13  H7  UNL     1     153.041 160.117 170.823  0.00  0.00    +0.000 HD
ENDBRANCH   1   7
BRANCH   2  14
ATOM     14  C4  UNL     1     155.430 157.688 168.119  0.00  0.00    +0.000 A 
ATOM     15  C5  UNL     1     156.652 157.029 168.127  0.00  0.00    +0.000 A 
ATOM     16  C6  UNL     1     157.248 156.576 166.951  0.00  0.00    +0.000 A 
ATOM     17  C7  UNL     1     156.614 156.784 165.748  0.00  0.00    +0.000 A 
ATOM     18  C8  UNL     1     155.404 157.435 165.747  0.00  0.00    +0.000 A 
ATOM     19  C9  UNL     1     154.798 157.895 166.920  0.00  0.00    +0.000 A 
ENDBRANCH   2  14
TORSDOF 2
ENDMDL
MODEL 8
REMARK VINA RESULT:      -4.9     18.956     20.246
REMARK  Name = ./3D_structures\o38_MMV1782225_3D.pdb
REMARK  2 active torsions:
REMARK  status: ('A' for Active; 'I' for Inactive)
REMARK    1  A    between atoms: C2_3  and  N1_4
REMARK    2  A    between atoms: C3_5  and  C4_7
REMARK                            x       y       z     vdW  Elec       q    Type
REMARK                         _______ _______ _______ _____ _____    ______ ____
ROOT
ATOM      1  N1  UNL     1     156.838 159.347 169.350  0.00  0.00    +0.000 N 
ATOM      2  C3  UNL     1     156.902 158.963 170.701  0.00  0.00    +0.000 C 
ATOM      3  O1  UNL     1     157.222 157.797 171.010  0.00  0.00    +0.000 OA
ATOM      4  H1  UNL     1     156.561 160.353 169.123  0.00  0.00    +0.000 HD
ENDROOT
BRANCH   1   7
ATOM      5  F1  UNL     1     159.421 159.034 168.568  0.00  0.00    +0.000 F 
ATOM      6  C1  UNL     1     158.459 158.372 167.863  0.00  0.00    +0.000 A 
ATOM      7  C2  UNL     1     157.115 158.509 168.239  0.00  0.00    +0.000 A 
ATOM      8  N2  UNL     1     156.194 157.851 167.532  0.00  0.00    +0.000 N 
ATOM      9  C10 UNL     1     156.527 157.065 166.478  0.00  0.00    +0.000 A 
ATOM     10  O2  UNL     1     155.627 156.463 165.842  0.00  0.00    +0.000 OA
ATOM     11  N3  UNL     1     157.822 156.941 166.128  0.00  0.00    +0.000 NA
ATOM     12  C11 UNL     1     158.789 157.579 166.799  0.00  0.00    +0.000 A 
ATOM     13  H7  UNL     1     155.195 157.913 167.759  0.00  0.00    +0.000 HD
ENDBRANCH   1   7
BRANCH   2  14
ATOM     14  C4  UNL     1     156.602 159.886 171.802  0.00  0.00    +0.000 A 
ATOM     15  C5  UNL     1     155.787 159.487 172.854  0.00  0.00    +0.000 A 
ATOM     16  C6  UNL     1     155.489 160.342 173.914  0.00  0.00    +0.000 A 
ATOM     17  C7  UNL     1     156.012 161.615 173.924  0.00  0.00    +0.000 A 
ATOM     18  C8  UNL     1     156.818 162.002 172.881  0.00  0.00    +0.000 A 
ATOM     19  C9  UNL     1     157.123 161.154 171.812  0.00  0.00    +0.000 A 
ENDBRANCH   2  14
TORSDOF 2
ENDMDL
MODEL 9
REMARK VINA RESULT:      -4.9     20.620     22.831
REMARK  Name = ./3D_structures\o38_MMV1782225_3D.pdb
REMARK  2 active torsions:
REMARK  status: ('A' for Active; 'I' for Inactive)
REMARK    1  A    between atoms: C2_3  and  N1_4
REMARK    2  A    between atoms: C3_5  and  C4_7
REMARK                            x       y       z     vdW  Elec       q    Type
REMARK                         _______ _______ _______ _____ _____    ______ ____
ROOT
ATOM      1  N1  UNL     1     149.318 163.236 167.976  0.00  0.00    +0.000 N 
ATOM      2  C3  UNL     1     149.460 161.950 167.428  0.00  0.00    +0.000 C 
ATOM      3  O1  UNL     1     148.457 161.234 167.232  0.00  0.00    +0.000 OA
ATOM      4  H1  UNL     1     150.198 163.821 168.129  0.00  0.00    +0.000 HD
ENDROOT
BRANCH   1   7
ATOM      5  F1  UNL     1     149.083 164.257 170.483  0.00  0.00    +0.000 F 
ATOM      6  C1  UNL     1     148.006 164.359 169.652  0.00  0.00    +0.000 A 
ATOM      7  C2  UNL     1     148.092 163.844 168.350  0.00  0.00    +0.000 A 
ATOM      8  N2  UNL     1     147.023 163.957 167.558  0.00  0.00    +0.000 N 
ATOM      9  C10 UNL     1     145.878 164.550 167.980  0.00  0.00    +0.000 A 
ATOM     10  O2  UNL     1     144.898 164.635 167.199  0.00  0.00    +0.000 OA
ATOM     11  N3  UNL     1     145.810 165.041 169.232  0.00  0.00    +0.000 NA
ATOM     12  C11 UNL     1     146.850 164.956 170.072  0.00  0.00    +0.000 A 
ATOM     13  H7  UNL     1     147.026 163.599 166.596  0.00  0.00    +0.000 HD
ENDBRANCH   1   7
BRANCH   2  14
ATOM     14  C4  UNL     1     150.764 161.384 167.062  0.00  0.00    +0.000 A 
ATOM     15  C5  UNL     1     151.191 161.394 165.741  0.00  0.00    +0.000 A 
ATOM     16  C6  UNL     1     152.426 160.867 165.366  0.00  0.00    +0.000 A 
ATOM     17  C7  UNL     1     153.247 160.320 166.326  0.00  0.00    +0.000 A 
ATOM     18  C8  UNL     1     152.818 160.315 167.632  0.00  0.00    +0.000 A 
ATOM     19  C9  UNL     1     151.582 160.840 168.018  0.00  0.00    +0.000 A 
ENDBRANCH   2  14
TORSDOF 2
ENDMDL
