MODEL 1
REMARK VINA RESULT:      -7.9      0.000      0.000
REMARK  Name = ./3D_structures\o39_MMV1782354_3D.pdb
REMARK  7 active torsions:
REMARK  status: ('A' for Active; 'I' for Inactive)
REMARK    1  A    between atoms: C1_1  and  C2_2
REMARK    2  A    between atoms: C4_4  and  C5_5
REMARK    3  A    between atoms: C11_11  and  C12_12
REMARK    4  A    between atoms: C12_12  and  C13_14
REMARK    5  A    between atoms: N1_16  and  C14_17
REMARK    6  A    between atoms: C17_20  and  N2_23
REMARK    7  A    between atoms: N6_36  and  C28_37
REMARK                            x       y       z     vdW  Elec       q    Type
REMARK                         _______ _______ _______ _____ _____    ______ ____
ROOT
ATOM      1  C13 UNL     1     155.379 158.591 167.078  0.00  0.00    +0.000 C 
ATOM      2  O2  UNL     1     154.680 158.633 166.057  0.00  0.00    +0.000 OA
ATOM      3  N1  UNL     1     155.047 159.630 168.045  0.00  0.00    +0.000 N 
ATOM      4  H10 UNL     1     155.638 159.596 168.931  0.00  0.00    +0.000 HD
ENDROOT
BRANCH   3   5
ATOM      5  C14 UNL     1     154.060 160.586 167.854  0.00  0.00    +0.000 A 
ATOM      6  C15 UNL     1     154.183 161.721 167.134  0.00  0.00    +0.000 A 
ATOM      7  C16 UNL     1     153.115 162.625 166.980  0.00  0.00    +0.000 A 
ATOM      8  C17 UNL     1     151.907 162.392 167.554  0.00  0.00    +0.000 A 
ATOM      9  C18 UNL     1     151.760 161.228 168.301  0.00  0.00    +0.000 A 
ATOM     10  C19 UNL     1     152.804 160.355 168.446  0.00  0.00    +0.000 A 
BRANCH   8  11
ATOM     11  N2  UNL     1     150.783 163.252 167.455  0.00  0.00    +0.000 N 
ATOM     12  C20 UNL     1     149.651 163.175 168.348  0.00  0.00    +0.000 C 
ATOM     13  C21 UNL     1     148.394 163.195 167.466  0.00  0.00    +0.000 C 
ATOM     14  N3  UNL     1     148.334 164.521 166.886  0.00  0.00    +0.000 N 
ATOM     15  C22 UNL     1     149.561 165.228 166.662  0.00  0.00    +0.000 C 
ATOM     16  C23 UNL     1     150.723 164.282 166.422  0.00  0.00    +0.000 C 
ATOM     17  C24 UNL     1     147.105 165.116 166.543  0.00  0.00    +0.000 A 
ATOM     18  N4  UNL     1     145.931 164.472 166.724  0.00  0.00    +0.000 NA
ATOM     19  C25 UNL     1     144.753 165.026 166.402  0.00  0.00    +0.000 A 
ATOM     20  C26 UNL     1     144.722 166.293 165.868  0.00  0.00    +0.000 A 
ATOM     21  F1  UNL     1     143.558 166.907 165.521  0.00  0.00    +0.000 F 
ATOM     22  C27 UNL     1     145.917 166.969 165.674  0.00  0.00    +0.000 A 
ATOM     23  N5  UNL     1     147.059 166.352 166.020  0.00  0.00    +0.000 NA
ENDBRANCH   8  11
ENDBRANCH   3   5
BRANCH   1  24
ATOM     24  C12 UNL     1     156.423 157.650 167.350  0.00  0.00    +0.000 C 
ATOM     25  O1  UNL     1     156.006 156.493 167.737  0.00  0.00    +0.000 OA
BRANCH  24  30
ATOM     26  C1  UNL     1     161.196 157.719 165.802  0.00  0.00    +0.000 C 
ATOM     27  C2  UNL     1     159.960 157.908 166.613  0.00  0.00    +0.000 A 
ATOM     28  C3  UNL     1     159.884 158.551 167.807  0.00  0.00    +0.000 A 
ATOM     29  C4  UNL     1     158.585 158.515 168.241  0.00  0.00    +0.000 A 
ATOM     30  C11 UNL     1     157.847 157.813 167.250  0.00  0.00    +0.000 A 
ATOM     31  N6  UNL     1     158.711 157.457 166.273  0.00  0.00    +0.000 N 
ATOM     32  C28 UNL     1     158.453 156.751 165.032  0.00  0.00    +0.000 C 
BRANCH  29  33
ATOM     33  C5  UNL     1     158.073 159.051 169.500  0.00  0.00    +0.000 A 
ATOM     34  C6  UNL     1     157.626 158.212 170.502  0.00  0.00    +0.000 A 
ATOM     35  C7  UNL     1     157.108 158.721 171.683  0.00  0.00    +0.000 A 
ATOM     36  C8  UNL     1     157.017 160.080 171.901  0.00  0.00    +0.000 A 
ATOM     37  C9  UNL     1     157.458 160.916 170.908  0.00  0.00    +0.000 A 
ATOM     38  C10 UNL     1     157.975 160.402 169.732  0.00  0.00    +0.000 A 
ENDBRANCH  29  33
ENDBRANCH  24  30
ENDBRANCH   1  24
TORSDOF 5
ENDMDL
MODEL 2
REMARK VINA RESULT:      -7.9      1.652      2.076
REMARK  Name = ./3D_structures\o39_MMV1782354_3D.pdb
REMARK  7 active torsions:
REMARK  status: ('A' for Active; 'I' for Inactive)
REMARK    1  A    between atoms: C1_1  and  C2_2
REMARK    2  A    between atoms: C4_4  and  C5_5
REMARK    3  A    between atoms: C11_11  and  C12_12
REMARK    4  A    between atoms: C12_12  and  C13_14
REMARK    5  A    between atoms: N1_16  and  C14_17
REMARK    6  A    between atoms: C17_20  and  N2_23
REMARK    7  A    between atoms: N6_36  and  C28_37
REMARK                            x       y       z     vdW  Elec       q    Type
REMARK                         _______ _______ _______ _____ _____    ______ ____
ROOT
ATOM      1  C13 UNL     1     156.596 160.376 165.767  0.00  0.00    +0.000 C 
ATOM      2  O2  UNL     1     156.268 161.103 164.820  0.00  0.00    +0.000 OA
ATOM      3  N1  UNL     1     155.719 160.511 166.924  0.00  0.00    +0.000 N 
ATOM      4  H10 UNL     1     155.989 159.882 167.741  0.00  0.00    +0.000 HD
ENDROOT
BRANCH   3   5
ATOM      5  C14 UNL     1     154.632 161.370 166.983  0.00  0.00    +0.000 A 
ATOM      6  C15 UNL     1     154.666 162.672 167.338  0.00  0.00    +0.000 A 
ATOM      7  C16 UNL     1     153.508 163.472 167.348  0.00  0.00    +0.000 A 
ATOM      8  C17 UNL     1     152.299 162.965 167.000  0.00  0.00    +0.000 A 
ATOM      9  C18 UNL     1     152.241 161.625 166.633  0.00  0.00    +0.000 A 
ATOM     10  C19 UNL     1     153.372 160.854 166.625  0.00  0.00    +0.000 A 
BRANCH   8  11
ATOM     11  N2  UNL     1     151.085 163.699 166.991  0.00  0.00    +0.000 N 
ATOM     12  C20 UNL     1     150.053 163.528 167.987  0.00  0.00    +0.000 C 
ATOM     13  C21 UNL     1     148.726 163.390 167.228  0.00  0.00    +0.000 C 
ATOM     14  N3  UNL     1     148.471 164.685 166.631  0.00  0.00    +0.000 N 
ATOM     15  C22 UNL     1     149.590 165.510 166.279  0.00  0.00    +0.000 C 
ATOM     16  C23 UNL     1     150.819 164.686 165.949  0.00  0.00    +0.000 C 
ATOM     17  C24 UNL     1     147.159 165.137 166.393  0.00  0.00    +0.000 A 
ATOM     18  N4  UNL     1     146.083 164.379 166.696  0.00  0.00    +0.000 NA
ATOM     19  C25 UNL     1     144.828 164.795 166.476  0.00  0.00    +0.000 A 
ATOM     20  C26 UNL     1     144.612 166.036 165.922  0.00  0.00    +0.000 A 
ATOM     21  F1  UNL     1     143.361 166.514 165.675  0.00  0.00    +0.000 F 
ATOM     22  C27 UNL     1     145.704 166.828 165.605  0.00  0.00    +0.000 A 
ATOM     23  N5  UNL     1     146.933 166.346 165.854  0.00  0.00    +0.000 NA
ENDBRANCH   8  11
ENDBRANCH   3   5
BRANCH   1  24
ATOM     24  C12 UNL     1     157.706 159.474 165.795  0.00  0.00    +0.000 C 
ATOM     25  O1  UNL     1     158.844 160.039 166.011  0.00  0.00    +0.000 OA
BRANCH  24  30
ATOM     26  C1  UNL     1     158.071 154.820 163.954  0.00  0.00    +0.000 C 
ATOM     27  C2  UNL     1     157.913 155.974 164.884  0.00  0.00    +0.000 A 
ATOM     28  C3  UNL     1     157.772 155.895 166.232  0.00  0.00    +0.000 A 
ATOM     29  C4  UNL     1     157.650 157.164 166.734  0.00  0.00    +0.000 A 
ATOM     30  C11 UNL     1     157.726 158.047 165.623  0.00  0.00    +0.000 A 
ATOM     31  N6  UNL     1     157.886 157.294 164.512  0.00  0.00    +0.000 N 
ATOM     32  C28 UNL     1     158.043 157.714 163.133  0.00  0.00    +0.000 C 
BRANCH  29  33
ATOM     33  C5  UNL     1     157.437 157.530 168.132  0.00  0.00    +0.000 A 
ATOM     34  C6  UNL     1     156.217 157.319 168.744  0.00  0.00    +0.000 A 
ATOM     35  C7  UNL     1     156.003 157.699 170.061  0.00  0.00    +0.000 A 
ATOM     36  C8  UNL     1     156.995 158.300 170.807  0.00  0.00    +0.000 A 
ATOM     37  C9  UNL     1     158.208 158.512 170.201  0.00  0.00    +0.000 A 
ATOM     38  C10 UNL     1     158.414 158.131 168.888  0.00  0.00    +0.000 A 
ENDBRANCH  29  33
ENDBRANCH  24  30
ENDBRANCH   1  24
TORSDOF 5
ENDMDL
MODEL 3
REMARK VINA RESULT:      -7.4      4.273     11.775
REMARK  Name = ./3D_structures\o39_MMV1782354_3D.pdb
REMARK  7 active torsions:
REMARK  status: ('A' for Active; 'I' for Inactive)
REMARK    1  A    between atoms: C1_1  and  C2_2
REMARK    2  A    between atoms: C4_4  and  C5_5
REMARK    3  A    between atoms: C11_11  and  C12_12
REMARK    4  A    between atoms: C12_12  and  C13_14
REMARK    5  A    between atoms: N1_16  and  C14_17
REMARK    6  A    between atoms: C17_20  and  N2_23
REMARK    7  A    between atoms: N6_36  and  C28_37
REMARK                            x       y       z     vdW  Elec       q    Type
REMARK                         _______ _______ _______ _____ _____    ______ ____
ROOT
ATOM      1  C13 UNL     1     148.162 162.205 168.052  0.00  0.00    +0.000 C 
ATOM      2  O2  UNL     1     148.210 161.334 167.174  0.00  0.00    +0.000 OA
ATOM      3  N1  UNL     1     149.376 162.279 168.855  0.00  0.00    +0.000 N 
ATOM      4  H10 UNL     1     149.347 163.034 169.607  0.00  0.00    +0.000 HD
ENDROOT
BRANCH   3   5
ATOM      5  C14 UNL     1     150.480 161.458 168.678  0.00  0.00    +0.000 A 
ATOM      6  C15 UNL     1     150.709 160.288 169.311  0.00  0.00    +0.000 A 
ATOM      7  C16 UNL     1     151.853 159.511 169.050  0.00  0.00    +0.000 A 
ATOM      8  C17 UNL     1     152.781 159.908 168.143  0.00  0.00    +0.000 A 
ATOM      9  C18 UNL     1     152.565 161.111 167.480  0.00  0.00    +0.000 A 
ATOM     10  C19 UNL     1     151.449 161.861 167.740  0.00  0.00    +0.000 A 
BRANCH   8  11
ATOM     11  N2  UNL     1     153.963 159.189 167.826  0.00  0.00    +0.000 N 
ATOM     12  C20 UNL     1     154.968 158.853 168.807  0.00  0.00    +0.000 C 
ATOM     13  C21 UNL     1     156.323 159.239 168.198  0.00  0.00    +0.000 C 
ATOM     14  N3  UNL     1     156.542 158.324 167.097  0.00  0.00    +0.000 N 
ATOM     15  C22 UNL     1     155.401 157.794 166.408  0.00  0.00    +0.000 C 
ATOM     16  C23 UNL     1     154.218 158.743 166.460  0.00  0.00    +0.000 C 
ATOM     17  C24 UNL     1     157.840 157.953 166.699  0.00  0.00    +0.000 A 
ATOM     18  N4  UNL     1     158.937 158.446 167.313  0.00  0.00    +0.000 NA
ATOM     19  C25 UNL     1     160.180 158.102 166.946  0.00  0.00    +0.000 A 
ATOM     20  C26 UNL     1     160.361 157.218 165.908  0.00  0.00    +0.000 A 
ATOM     21  F1  UNL     1     161.597 156.831 165.489  0.00  0.00    +0.000 F 
ATOM     22  C27 UNL     1     159.247 156.702 165.266  0.00  0.00    +0.000 A 
ATOM     23  N5  UNL     1     158.032 157.091 165.687  0.00  0.00    +0.000 NA
ENDBRANCH   8  11
ENDBRANCH   3   5
BRANCH   1  24
ATOM     24  C12 UNL     1     147.063 163.085 168.311  0.00  0.00    +0.000 C 
ATOM     25  O1  UNL     1     146.549 162.960 169.487  0.00  0.00    +0.000 OA
BRANCH  24  30
ATOM     26  C1  UNL     1     143.867 165.916 165.675  0.00  0.00    +0.000 C 
ATOM     27  C2  UNL     1     145.106 165.382 166.307  0.00  0.00    +0.000 A 
ATOM     28  C3  UNL     1     146.340 165.944 166.236  0.00  0.00    +0.000 A 
ATOM     29  C4  UNL     1     147.218 165.160 166.938  0.00  0.00    +0.000 A 
ATOM     30  C11 UNL     1     146.464 164.073 167.456  0.00  0.00    +0.000 A 
ATOM     31  N6  UNL     1     145.183 164.235 167.056  0.00  0.00    +0.000 N 
ATOM     32  C28 UNL     1     144.021 163.416 167.342  0.00  0.00    +0.000 C 
BRANCH  29  33
ATOM     33  C5  UNL     1     148.655 165.378 167.081  0.00  0.00    +0.000 A 
ATOM     34  C6  UNL     1     149.526 165.084 166.050  0.00  0.00    +0.000 A 
ATOM     35  C7  UNL     1     150.894 165.258 166.199  0.00  0.00    +0.000 A 
ATOM     36  C8  UNL     1     151.436 165.728 167.377  0.00  0.00    +0.000 A 
ATOM     37  C9  UNL     1     150.574 166.019 168.403  0.00  0.00    +0.000 A 
ATOM     38  C10 UNL     1     149.211 165.844 168.248  0.00  0.00    +0.000 A 
ENDBRANCH  29  33
ENDBRANCH  24  30
ENDBRANCH   1  24
TORSDOF 5
ENDMDL
MODEL 4
REMARK VINA RESULT:      -7.3      4.545     11.715
REMARK  Name = ./3D_structures\o39_MMV1782354_3D.pdb
REMARK  7 active torsions:
REMARK  status: ('A' for Active; 'I' for Inactive)
REMARK    1  A    between atoms: C1_1  and  C2_2
REMARK    2  A    between atoms: C4_4  and  C5_5
REMARK    3  A    between atoms: C11_11  and  C12_12
REMARK    4  A    between atoms: C12_12  and  C13_14
REMARK    5  A    between atoms: N1_16  and  C14_17
REMARK    6  A    between atoms: C17_20  and  N2_23
REMARK    7  A    between atoms: N6_36  and  C28_37
REMARK                            x       y       z     vdW  Elec       q    Type
REMARK                         _______ _______ _______ _____ _____    ______ ____
ROOT
ATOM      1  C13 UNL     1     148.699 162.330 167.968  0.00  0.00    +0.000 C 
ATOM      2  O2  UNL     1     148.628 161.363 167.199  0.00  0.00    +0.000 OA
ATOM      3  N1  UNL     1     150.022 162.500 168.556  0.00  0.00    +0.000 N 
ATOM      4  H10 UNL     1     150.095 163.336 169.213  0.00  0.00    +0.000 HD
ENDROOT
BRANCH   3   5
ATOM      5  C14 UNL     1     151.102 161.667 168.301  0.00  0.00    +0.000 A 
ATOM      6  C15 UNL     1     151.412 160.540 168.977  0.00  0.00    +0.000 A 
ATOM      7  C16 UNL     1     152.520 159.745 168.631  0.00  0.00    +0.000 A 
ATOM      8  C17 UNL     1     153.331 160.080 167.596  0.00  0.00    +0.000 A 
ATOM      9  C18 UNL     1     153.030 161.237 166.887  0.00  0.00    +0.000 A 
ATOM     10  C19 UNL     1     151.950 162.005 167.230  0.00  0.00    +0.000 A 
BRANCH   8  11
ATOM     11  N2  UNL     1     154.470 159.340 167.187  0.00  0.00    +0.000 N 
ATOM     12  C20 UNL     1     155.640 159.953 166.603  0.00  0.00    +0.000 C 
ATOM     13  C21 UNL     1     155.990 159.131 165.354  0.00  0.00    +0.000 C 
ATOM     14  N3  UNL     1     156.435 157.841 165.836  0.00  0.00    +0.000 N 
ATOM     15  C22 UNL     1     155.905 157.351 167.075  0.00  0.00    +0.000 C 
ATOM     16  C23 UNL     1     154.513 157.889 167.346  0.00  0.00    +0.000 C 
ATOM     17  C24 UNL     1     157.367 157.070 165.115  0.00  0.00    +0.000 A 
ATOM     18  N4  UNL     1     157.874 157.492 163.937  0.00  0.00    +0.000 NA
ATOM     19  C25 UNL     1     158.763 156.770 163.238  0.00  0.00    +0.000 A 
ATOM     20  C26 UNL     1     159.182 155.555 163.727  0.00  0.00    +0.000 A 
ATOM     21  F1  UNL     1     160.081 154.776 163.064  0.00  0.00    +0.000 F 
ATOM     22  C27 UNL     1     158.673 155.105 164.934  0.00  0.00    +0.000 A 
ATOM     23  N5  UNL     1     157.786 155.882 165.579  0.00  0.00    +0.000 NA
ENDBRANCH   8  11
ENDBRANCH   3   5
BRANCH   1  24
ATOM     24  C12 UNL     1     147.636 163.231 168.295  0.00  0.00    +0.000 C 
ATOM     25  O1  UNL     1     147.263 163.185 169.529  0.00  0.00    +0.000 OA
BRANCH  24  30
ATOM     26  C1  UNL     1     144.154 165.839 165.795  0.00  0.00    +0.000 C 
ATOM     27  C2  UNL     1     145.454 165.378 166.359  0.00  0.00    +0.000 A 
ATOM     28  C3  UNL     1     146.655 165.989 166.191  0.00  0.00    +0.000 A 
ATOM     29  C4  UNL     1     147.610 165.266 166.856  0.00  0.00    +0.000 A 
ATOM     30  C11 UNL     1     146.940 164.165 167.454  0.00  0.00    +0.000 A 
ATOM     31  N6  UNL     1     145.630 164.260 167.134  0.00  0.00    +0.000 N 
ATOM     32  C28 UNL     1     144.527 163.401 167.519  0.00  0.00    +0.000 C 
BRANCH  29  33
ATOM     33  C5  UNL     1     149.043 165.550 166.898  0.00  0.00    +0.000 A 
ATOM     34  C6  UNL     1     149.618 166.143 168.005  0.00  0.00    +0.000 A 
ATOM     35  C7  UNL     1     150.972 166.444 168.032  0.00  0.00    +0.000 A 
ATOM     36  C8  UNL     1     151.792 166.165 166.959  0.00  0.00    +0.000 A 
ATOM     37  C9  UNL     1     151.223 165.577 165.858  0.00  0.00    +0.000 A 
ATOM     38  C10 UNL     1     149.873 165.279 165.838  0.00  0.00    +0.000 A 
ENDBRANCH  29  33
ENDBRANCH  24  30
ENDBRANCH   1  24
TORSDOF 5
ENDMDL
MODEL 5
REMARK VINA RESULT:      -7.1      5.913      6.933
REMARK  Name = ./3D_structures\o39_MMV1782354_3D.pdb
REMARK  7 active torsions:
REMARK  status: ('A' for Active; 'I' for Inactive)
REMARK    1  A    between atoms: C1_1  and  C2_2
REMARK    2  A    between atoms: C4_4  and  C5_5
REMARK    3  A    between atoms: C11_11  and  C12_12
REMARK    4  A    between atoms: C12_12  and  C13_14
REMARK    5  A    between atoms: N1_16  and  C14_17
REMARK    6  A    between atoms: C17_20  and  N2_23
REMARK    7  A    between atoms: N6_36  and  C28_37
REMARK                            x       y       z     vdW  Elec       q    Type
REMARK                         _______ _______ _______ _____ _____    ______ ____
ROOT
ATOM      1  C13 UNL     1     154.829 159.324 167.650  0.00  0.00    +0.000 C 
ATOM      2  O2  UNL     1     154.160 158.575 166.925  0.00  0.00    +0.000 OA
ATOM      3  N1  UNL     1     154.146 159.685 168.886  0.00  0.00    +0.000 N 
ATOM      4  H10 UNL     1     154.718 160.321 169.521  0.00  0.00    +0.000 HD
ENDROOT
BRANCH   3   5
ATOM      5  C14 UNL     1     152.873 159.255 169.228  0.00  0.00    +0.000 A 
ATOM      6  C15 UNL     1     151.727 159.944 169.046  0.00  0.00    +0.000 A 
ATOM      7  C16 UNL     1     150.474 159.415 169.409  0.00  0.00    +0.000 A 
ATOM      8  C17 UNL     1     150.364 158.180 169.960  0.00  0.00    +0.000 A 
ATOM      9  C18 UNL     1     151.533 157.453 170.156  0.00  0.00    +0.000 A 
ATOM     10  C19 UNL     1     152.747 157.975 169.801  0.00  0.00    +0.000 A 
BRANCH   8  11
ATOM     11  N2  UNL     1     149.143 157.577 170.359  0.00  0.00    +0.000 N 
ATOM     12  C20 UNL     1     148.959 156.947 171.646  0.00  0.00    +0.000 C 
ATOM     13  C21 UNL     1     148.302 155.585 171.380  0.00  0.00    +0.000 C 
ATOM     14  N3  UNL     1     146.966 155.873 170.900  0.00  0.00    +0.000 N 
ATOM     15  C22 UNL     1     146.742 157.098 170.188  0.00  0.00    +0.000 C 
ATOM     16  C23 UNL     1     147.989 157.568 169.465  0.00  0.00    +0.000 C 
ATOM     17  C24 UNL     1     145.901 154.979 171.118  0.00  0.00    +0.000 A 
ATOM     18  N4  UNL     1     146.080 153.809 171.769  0.00  0.00    +0.000 NA
ATOM     19  C25 UNL     1     145.075 152.948 171.984  0.00  0.00    +0.000 A 
ATOM     20  C26 UNL     1     143.812 153.252 171.533  0.00  0.00    +0.000 A 
ATOM     21  F1  UNL     1     142.753 152.418 171.721  0.00  0.00    +0.000 F 
ATOM     22  C27 UNL     1     143.609 154.448 170.863  0.00  0.00    +0.000 A 
ATOM     23  N5  UNL     1     144.662 155.263 170.683  0.00  0.00    +0.000 NA
ENDBRANCH   8  11
ENDBRANCH   3   5
BRANCH   1  24
ATOM     24  C12 UNL     1     156.141 159.823 167.369  0.00  0.00    +0.000 C 
ATOM     25  O1  UNL     1     156.168 161.049 166.973  0.00  0.00    +0.000 OA
BRANCH  24  30
ATOM     26  C1  UNL     1     160.538 157.603 166.409  0.00  0.00    +0.000 C 
ATOM     27  C2  UNL     1     159.374 158.209 167.116  0.00  0.00    +0.000 A 
ATOM     28  C3  UNL     1     159.258 158.375 168.459  0.00  0.00    +0.000 A 
ATOM     29  C4  UNL     1     158.049 158.961 168.724  0.00  0.00    +0.000 A 
ATOM     30  C11 UNL     1     157.411 159.157 167.469  0.00  0.00    +0.000 A 
ATOM     31  N6  UNL     1     158.241 158.690 166.511  0.00  0.00    +0.000 N 
ATOM     32  C28 UNL     1     158.069 158.683 165.071  0.00  0.00    +0.000 C 
BRANCH  29  33
ATOM     33  C5  UNL     1     157.505 159.277 170.043  0.00  0.00    +0.000 A 
ATOM     34  C6  UNL     1     156.906 158.303 170.818  0.00  0.00    +0.000 A 
ATOM     35  C7  UNL     1     156.359 158.610 172.055  0.00  0.00    +0.000 A 
ATOM     36  C8  UNL     1     156.391 159.894 172.557  0.00  0.00    +0.000 A 
ATOM     37  C9  UNL     1     156.984 160.864 171.789  0.00  0.00    +0.000 A 
ATOM     38  C10 UNL     1     157.528 160.551 170.557  0.00  0.00    +0.000 A 
ENDBRANCH  29  33
ENDBRANCH  24  30
ENDBRANCH   1  24
TORSDOF 5
ENDMDL
MODEL 6
REMARK VINA RESULT:      -7.0      1.738      3.835
REMARK  Name = ./3D_structures\o39_MMV1782354_3D.pdb
REMARK  7 active torsions:
REMARK  status: ('A' for Active; 'I' for Inactive)
REMARK    1  A    between atoms: C1_1  and  C2_2
REMARK    2  A    between atoms: C4_4  and  C5_5
REMARK    3  A    between atoms: C11_11  and  C12_12
REMARK    4  A    between atoms: C12_12  and  C13_14
REMARK    5  A    between atoms: N1_16  and  C14_17
REMARK    6  A    between atoms: C17_20  and  N2_23
REMARK    7  A    between atoms: N6_36  and  C28_37
REMARK                            x       y       z     vdW  Elec       q    Type
REMARK                         _______ _______ _______ _____ _____    ______ ____
ROOT
ATOM      1  C13 UNL     1     156.535 158.759 166.851  0.00  0.00    +0.000 C 
ATOM      2  O2  UNL     1     156.785 159.955 166.650  0.00  0.00    +0.000 OA
ATOM      3  N1  UNL     1     155.146 158.517 167.220  0.00  0.00    +0.000 N 
ATOM      4  H10 UNL     1     154.920 157.489 167.386  0.00  0.00    +0.000 HD
ENDROOT
BRANCH   3   5
ATOM      5  C14 UNL     1     154.188 159.512 167.350  0.00  0.00    +0.000 A 
ATOM      6  C15 UNL     1     153.905 160.199 168.477  0.00  0.00    +0.000 A 
ATOM      7  C16 UNL     1     152.925 161.209 168.506  0.00  0.00    +0.000 A 
ATOM      8  C17 UNL     1     152.219 161.539 167.395  0.00  0.00    +0.000 A 
ATOM      9  C18 UNL     1     152.496 160.843 166.224  0.00  0.00    +0.000 A 
ATOM     10  C19 UNL     1     153.450 159.861 166.203  0.00  0.00    +0.000 A 
BRANCH   8  11
ATOM     11  N2  UNL     1     151.213 162.537 167.341  0.00  0.00    +0.000 N 
ATOM     12  C20 UNL     1     150.134 162.621 168.298  0.00  0.00    +0.000 C 
ATOM     13  C21 UNL     1     148.841 162.793 167.489  0.00  0.00    +0.000 C 
ATOM     14  N3  UNL     1     148.919 164.106 166.884  0.00  0.00    +0.000 N 
ATOM     15  C22 UNL     1     150.212 164.644 166.576  0.00  0.00    +0.000 C 
ATOM     16  C23 UNL     1     151.225 163.551 166.292  0.00  0.00    +0.000 C 
ATOM     17  C24 UNL     1     147.760 164.852 166.598  0.00  0.00    +0.000 A 
ATOM     18  N4  UNL     1     146.525 164.370 166.859  0.00  0.00    +0.000 NA
ATOM     19  C25 UNL     1     145.412 165.068 166.593  0.00  0.00    +0.000 A 
ATOM     20  C26 UNL     1     145.514 166.320 166.033  0.00  0.00    +0.000 A 
ATOM     21  F1  UNL     1     144.420 167.076 165.740  0.00  0.00    +0.000 F 
ATOM     22  C27 UNL     1     146.772 166.831 165.758  0.00  0.00    +0.000 A 
ATOM     23  N5  UNL     1     147.844 166.076 166.052  0.00  0.00    +0.000 NA
ENDBRANCH   8  11
ENDBRANCH   3   5
BRANCH   1  24
ATOM     24  C12 UNL     1     157.463 157.674 166.752  0.00  0.00    +0.000 C 
ATOM     25  O1  UNL     1     156.924 156.506 166.845  0.00  0.00    +0.000 OA
BRANCH  24  30
ATOM     26  C1  UNL     1     162.394 158.490 167.198  0.00  0.00    +0.000 C 
ATOM     27  C2  UNL     1     161.071 157.993 166.724  0.00  0.00    +0.000 A 
ATOM     28  C3  UNL     1     160.869 157.116 165.707  0.00  0.00    +0.000 A 
ATOM     29  C4  UNL     1     159.521 156.909 165.571  0.00  0.00    +0.000 A 
ATOM     30  C11 UNL     1     158.887 157.705 166.562  0.00  0.00    +0.000 A 
ATOM     31  N6  UNL     1     159.855 158.353 167.248  0.00  0.00    +0.000 N 
ATOM     32  C28 UNL     1     159.733 159.261 168.372  0.00  0.00    +0.000 C 
BRANCH  29  33
ATOM     33  C5  UNL     1     158.867 156.070 164.569  0.00  0.00    +0.000 A 
ATOM     34  C6  UNL     1     158.289 156.625 163.443  0.00  0.00    +0.000 A 
ATOM     35  C7  UNL     1     157.638 155.833 162.510  0.00  0.00    +0.000 A 
ATOM     36  C8  UNL     1     157.541 154.466 162.669  0.00  0.00    +0.000 A 
ATOM     37  C9  UNL     1     158.113 153.912 163.786  0.00  0.00    +0.000 A 
ATOM     38  C10 UNL     1     158.762 154.708 164.713  0.00  0.00    +0.000 A 
ENDBRANCH  29  33
ENDBRANCH  24  30
ENDBRANCH   1  24
TORSDOF 5
ENDMDL
MODEL 7
REMARK VINA RESULT:      -7.0      1.865      2.410
REMARK  Name = ./3D_structures\o39_MMV1782354_3D.pdb
REMARK  7 active torsions:
REMARK  status: ('A' for Active; 'I' for Inactive)
REMARK    1  A    between atoms: C1_1  and  C2_2
REMARK    2  A    between atoms: C4_4  and  C5_5
REMARK    3  A    between atoms: C11_11  and  C12_12
REMARK    4  A    between atoms: C12_12  and  C13_14
REMARK    5  A    between atoms: N1_16  and  C14_17
REMARK    6  A    between atoms: C17_20  and  N2_23
REMARK    7  A    between atoms: N6_36  and  C28_37
REMARK                            x       y       z     vdW  Elec       q    Type
REMARK                         _______ _______ _______ _____ _____    ______ ____
ROOT
ATOM      1  C13 UNL     1     157.523 161.758 168.050  0.00  0.00    +0.000 C 
ATOM      2  O2  UNL     1     157.388 162.945 168.376  0.00  0.00    +0.000 OA
ATOM      3  N1  UNL     1     156.263 161.111 167.705  0.00  0.00    +0.000 N 
ATOM      4  H10 UNL     1     156.371 160.092 167.414  0.00  0.00    +0.000 HD
ENDROOT
BRANCH   3   5
ATOM      5  C14 UNL     1     155.027 161.739 167.744  0.00  0.00    +0.000 A 
ATOM      6  C15 UNL     1     154.103 161.613 168.720  0.00  0.00    +0.000 A 
ATOM      7  C16 UNL     1     152.880 162.310 168.682  0.00  0.00    +0.000 A 
ATOM      8  C17 UNL     1     152.576 163.144 167.655  0.00  0.00    +0.000 A 
ATOM      9  C18 UNL     1     153.514 163.286 166.639  0.00  0.00    +0.000 A 
ATOM     10  C19 UNL     1     154.701 162.606 166.683  0.00  0.00    +0.000 A 
BRANCH   8  11
ATOM     11  N2  UNL     1     151.367 163.876 167.537  0.00  0.00    +0.000 N 
ATOM     12  C20 UNL     1     150.259 163.720 168.450  0.00  0.00    +0.000 C 
ATOM     13  C21 UNL     1     148.997 163.568 167.588  0.00  0.00    +0.000 C 
ATOM     14  N3  UNL     1     148.790 164.853 166.953  0.00  0.00    +0.000 N 
ATOM     15  C22 UNL     1     149.934 165.674 166.679  0.00  0.00    +0.000 C 
ATOM     16  C23 UNL     1     151.186 164.846 166.462  0.00  0.00    +0.000 C 
ATOM     17  C24 UNL     1     147.502 165.299 166.603  0.00  0.00    +0.000 A 
ATOM     18  N4  UNL     1     146.405 164.545 166.830  0.00  0.00    +0.000 NA
ATOM     19  C25 UNL     1     145.172 164.956 166.503  0.00  0.00    +0.000 A 
ATOM     20  C26 UNL     1     145.001 166.188 165.915  0.00  0.00    +0.000 A 
ATOM     21  F1  UNL     1     143.774 166.660 165.561  0.00  0.00    +0.000 F 
ATOM     22  C27 UNL     1     146.115 166.976 165.674  0.00  0.00    +0.000 A 
ATOM     23  N5  UNL     1     147.320 166.499 166.028  0.00  0.00    +0.000 NA
ENDBRANCH   8  11
ENDBRANCH   3   5
BRANCH   1  24
ATOM     24  C12 UNL     1     158.754 161.031 167.994  0.00  0.00    +0.000 C 
ATOM     25  O1  UNL     1     159.701 161.536 168.709  0.00  0.00    +0.000 OA
BRANCH  24  30
ATOM     26  C1  UNL     1     160.593 157.687 164.735  0.00  0.00    +0.000 C 
ATOM     27  C2  UNL     1     159.883 158.307 165.890  0.00  0.00    +0.000 A 
ATOM     28  C3  UNL     1     159.217 157.638 166.865  0.00  0.00    +0.000 A 
ATOM     29  C4  UNL     1     158.696 158.551 167.744  0.00  0.00    +0.000 A 
ATOM     30  C11 UNL     1     159.076 159.834 167.266  0.00  0.00    +0.000 A 
ATOM     31  N6  UNL     1     159.796 159.653 166.137  0.00  0.00    +0.000 N 
ATOM     32  C28 UNL     1     160.433 160.640 165.287  0.00  0.00    +0.000 C 
BRANCH  29  33
ATOM     33  C5  UNL     1     157.872 158.259 168.915  0.00  0.00    +0.000 A 
ATOM     34  C6  UNL     1     158.250 158.683 170.174  0.00  0.00    +0.000 A 
ATOM     35  C7  UNL     1     157.486 158.377 171.290  0.00  0.00    +0.000 A 
ATOM     36  C8  UNL     1     156.325 157.638 171.187  0.00  0.00    +0.000 A 
ATOM     37  C9  UNL     1     155.948 157.215 169.938  0.00  0.00    +0.000 A 
ATOM     38  C10 UNL     1     156.714 157.525 168.829  0.00  0.00    +0.000 A 
ENDBRANCH  29  33
ENDBRANCH  24  30
ENDBRANCH   1  24
TORSDOF 5
ENDMDL
MODEL 8
REMARK VINA RESULT:      -6.8      7.998     13.357
REMARK  Name = ./3D_structures\o39_MMV1782354_3D.pdb
REMARK  7 active torsions:
REMARK  status: ('A' for Active; 'I' for Inactive)
REMARK    1  A    between atoms: C1_1  and  C2_2
REMARK    2  A    between atoms: C4_4  and  C5_5
REMARK    3  A    between atoms: C11_11  and  C12_12
REMARK    4  A    between atoms: C12_12  and  C13_14
REMARK    5  A    between atoms: N1_16  and  C14_17
REMARK    6  A    between atoms: C17_20  and  N2_23
REMARK    7  A    between atoms: N6_36  and  C28_37
REMARK                            x       y       z     vdW  Elec       q    Type
REMARK                         _______ _______ _______ _____ _____    ______ ____
ROOT
ATOM      1  C13 UNL     1     157.108 157.092 165.943  0.00  0.00    +0.000 C 
ATOM      2  O2  UNL     1     156.059 156.435 165.902  0.00  0.00    +0.000 OA
ATOM      3  N1  UNL     1     158.153 156.558 165.079  0.00  0.00    +0.000 N 
ATOM      4  H10 UNL     1     159.057 157.123 165.102  0.00  0.00    +0.000 HD
ENDROOT
BRANCH   3   5
ATOM      5  C14 UNL     1     158.012 155.425 164.293  0.00  0.00    +0.000 A 
ATOM      6  C15 UNL     1     157.596 155.396 163.009  0.00  0.00    +0.000 A 
ATOM      7  C16 UNL     1     157.504 154.194 162.283  0.00  0.00    +0.000 A 
ATOM      8  C17 UNL     1     157.832 153.004 162.846  0.00  0.00    +0.000 A 
ATOM      9  C18 UNL     1     158.263 153.011 164.168  0.00  0.00    +0.000 A 
ATOM     10  C19 UNL     1     158.349 154.185 164.867  0.00  0.00    +0.000 A 
BRANCH   8  11
ATOM     11  N2  UNL     1     157.762 151.749 162.188  0.00  0.00    +0.000 N 
ATOM     12  C20 UNL     1     156.552 151.244 161.581  0.00  0.00    +0.000 C 
ATOM     13  C21 UNL     1     156.392 149.794 162.059  0.00  0.00    +0.000 C 
ATOM     14  N3  UNL     1     157.469 149.049 161.441  0.00  0.00    +0.000 N 
ATOM     15  C22 UNL     1     158.694 149.733 161.142  0.00  0.00    +0.000 C 
ATOM     16  C23 UNL     1     158.939 150.892 162.089  0.00  0.00    +0.000 C 
ATOM     17  C24 UNL     1     157.334 147.681 161.136  0.00  0.00    +0.000 A 
ATOM     18  N4  UNL     1     156.202 147.001 161.419  0.00  0.00    +0.000 NA
ATOM     19  C25 UNL     1     156.058 145.699 161.135  0.00  0.00    +0.000 A 
ATOM     20  C26 UNL     1     157.090 145.018 160.533  0.00  0.00    +0.000 A 
ATOM     21  F1  UNL     1     157.004 143.695 160.219  0.00  0.00    +0.000 F 
ATOM     22  C27 UNL     1     158.259 145.699 160.234  0.00  0.00    +0.000 A 
ATOM     23  N5  UNL     1     158.334 147.003 160.548  0.00  0.00    +0.000 NA
ENDBRANCH   8  11
ENDBRANCH   3   5
BRANCH   1  24
ATOM     24  C12 UNL     1     157.342 158.262 166.733  0.00  0.00    +0.000 C 
ATOM     25  O1  UNL     1     157.464 159.348 166.049  0.00  0.00    +0.000 OA
BRANCH  24  30
ATOM     26  C1  UNL     1     156.501 158.272 171.680  0.00  0.00    +0.000 C 
ATOM     27  C2  UNL     1     157.162 158.380 170.350  0.00  0.00    +0.000 A 
ATOM     28  C3  UNL     1     158.474 158.656 170.134  0.00  0.00    +0.000 A 
ATOM     29  C4  UNL     1     158.701 158.674 168.783  0.00  0.00    +0.000 A 
ATOM     30  C11 UNL     1     157.455 158.392 168.160  0.00  0.00    +0.000 A 
ATOM     31  N6  UNL     1     156.539 158.218 169.139  0.00  0.00    +0.000 N 
ATOM     32  C28 UNL     1     155.131 157.885 169.030  0.00  0.00    +0.000 C 
BRANCH  29  33
ATOM     33  C5  UNL     1     159.966 158.974 168.117  0.00  0.00    +0.000 A 
ATOM     34  C6  UNL     1     160.400 160.277 167.966  0.00  0.00    +0.000 A 
ATOM     35  C7  UNL     1     161.584 160.564 167.304  0.00  0.00    +0.000 A 
ATOM     36  C8  UNL     1     162.370 159.563 166.770  0.00  0.00    +0.000 A 
ATOM     37  C9  UNL     1     161.942 158.269 166.917  0.00  0.00    +0.000 A 
ATOM     38  C10 UNL     1     160.760 157.990 167.580  0.00  0.00    +0.000 A 
ENDBRANCH  29  33
ENDBRANCH  24  30
ENDBRANCH   1  24
TORSDOF 5
ENDMDL
MODEL 9
REMARK VINA RESULT:      -6.8      4.524     12.412
REMARK  Name = ./3D_structures\o39_MMV1782354_3D.pdb
REMARK  7 active torsions:
REMARK  status: ('A' for Active; 'I' for Inactive)
REMARK    1  A    between atoms: C1_1  and  C2_2
REMARK    2  A    between atoms: C4_4  and  C5_5
REMARK    3  A    between atoms: C11_11  and  C12_12
REMARK    4  A    between atoms: C12_12  and  C13_14
REMARK    5  A    between atoms: N1_16  and  C14_17
REMARK    6  A    between atoms: C17_20  and  N2_23
REMARK    7  A    between atoms: N6_36  and  C28_37
REMARK                            x       y       z     vdW  Elec       q    Type
REMARK                         _______ _______ _______ _____ _____    ______ ____
ROOT
ATOM      1  C13 UNL     1     147.981 161.490 167.861  0.00  0.00    +0.000 C 
ATOM      2  O2  UNL     1     148.079 160.460 167.180  0.00  0.00    +0.000 OA
ATOM      3  N1  UNL     1     149.224 161.857 168.528  0.00  0.00    +0.000 N 
ATOM      4  H10 UNL     1     149.152 162.748 169.108  0.00  0.00    +0.000 HD
ENDROOT
BRANCH   3   5
ATOM      5  C14 UNL     1     150.404 161.134 168.433  0.00  0.00    +0.000 A 
ATOM      6  C15 UNL     1     150.799 160.148 169.266  0.00  0.00    +0.000 A 
ATOM      7  C16 UNL     1     152.009 159.454 169.077  0.00  0.00    +0.000 A 
ATOM      8  C17 UNL     1     152.836 159.749 168.042  0.00  0.00    +0.000 A 
ATOM      9  C18 UNL     1     152.448 160.763 167.173  0.00  0.00    +0.000 A 
ATOM     10  C19 UNL     1     151.269 161.433 167.364  0.00  0.00    +0.000 A 
BRANCH   8  11
ATOM     11  N2  UNL     1     154.074 159.105 167.784  0.00  0.00    +0.000 N 
ATOM     12  C20 UNL     1     154.997 158.726 168.828  0.00  0.00    +0.000 C 
ATOM     13  C21 UNL     1     156.385 159.213 168.386  0.00  0.00    +0.000 C 
ATOM     14  N3  UNL     1     156.747 158.403 167.242  0.00  0.00    +0.000 N 
ATOM     15  C22 UNL     1     155.701 157.890 166.406  0.00  0.00    +0.000 C 
ATOM     16  C23 UNL     1     154.476 158.785 166.418  0.00  0.00    +0.000 C 
ATOM     17  C24 UNL     1     158.092 158.116 166.943  0.00  0.00    +0.000 A 
ATOM     18  N4  UNL     1     159.103 158.597 167.699  0.00  0.00    +0.000 NA
ATOM     19  C25 UNL     1     160.390 158.332 167.427  0.00  0.00    +0.000 A 
ATOM     20  C26 UNL     1     160.706 157.546 166.344  0.00  0.00    +0.000 A 
ATOM     21  F1  UNL     1     161.993 157.243 166.017  0.00  0.00    +0.000 F 
ATOM     22  C27 UNL     1     159.682 157.044 165.557  0.00  0.00    +0.000 A 
ATOM     23  N5  UNL     1     158.417 157.350 165.889  0.00  0.00    +0.000 NA
ENDBRANCH   8  11
ENDBRANCH   3   5
BRANCH   1  24
ATOM     24  C12 UNL     1     146.804 162.288 168.023  0.00  0.00    +0.000 C 
ATOM     25  O1  UNL     1     146.097 161.986 169.057  0.00  0.00    +0.000 OA
BRANCH  24  30
ATOM     26  C1  UNL     1     146.204 166.615 165.553  0.00  0.00    +0.000 C 
ATOM     27  C2  UNL     1     146.007 165.228 166.062  0.00  0.00    +0.000 A 
ATOM     28  C3  UNL     1     145.020 164.375 165.685  0.00  0.00    +0.000 A 
ATOM     29  C4  UNL     1     145.171 163.201 166.375  0.00  0.00    +0.000 A 
ATOM     30  C11 UNL     1     146.311 163.363 167.206  0.00  0.00    +0.000 A 
ATOM     31  N6  UNL     1     146.799 164.606 166.994  0.00  0.00    +0.000 N 
ATOM     32  C28 UNL     1     147.962 165.248 167.576  0.00  0.00    +0.000 C 
BRANCH  29  33
ATOM     33  C5  UNL     1     144.298 162.031 166.301  0.00  0.00    +0.000 A 
ATOM     34  C6  UNL     1     143.070 162.019 166.933  0.00  0.00    +0.000 A 
ATOM     35  C7  UNL     1     142.257 160.896 166.893  0.00  0.00    +0.000 A 
ATOM     36  C8  UNL     1     142.642 159.753 166.224  0.00  0.00    +0.000 A 
ATOM     37  C9  UNL     1     143.861 159.762 165.596  0.00  0.00    +0.000 A 
ATOM     38  C10 UNL     1     144.667 160.885 165.640  0.00  0.00    +0.000 A 
ENDBRANCH  29  33
ENDBRANCH  24  30
ENDBRANCH   1  24
TORSDOF 5
ENDMDL
