MODEL 1
REMARK VINA RESULT:      -6.6      0.000      0.000
REMARK  Name = ./3D_structures\o41_MMV1782351_3D.pdb
REMARK  1 active torsions:
REMARK  status: ('A' for Active; 'I' for Inactive)
REMARK    1  A    between atoms: C5_6  and  C7_8
REMARK                            x       y       z     vdW  Elec       q    Type
REMARK                         _______ _______ _______ _____ _____    ______ ____
ROOT
ATOM      1  C7  UNL     1     157.012 156.357 165.944  0.00  0.00    +0.000 C 
ATOM      2  O1  UNL     1     155.946 156.409 165.264  0.00  0.00    +0.000 OA
ATOM      3  N1  UNL     1     156.923 156.846 167.272  0.00  0.00    +0.000 N 
ATOM      4  C8  UNL     1     155.686 157.371 167.812  0.00  0.00    +0.000 C 
ATOM      5  O2  UNL     1     154.696 157.371 167.044  0.00  0.00    +0.000 OA
ATOM      6  N2  UNL     1     155.636 157.850 169.144  0.00  0.00    +0.000 N 
ATOM      7  C9  UNL     1     156.863 157.869 169.923  0.00  0.00    +0.000 C 
ATOM      8  C10 UNL     1     156.766 158.654 171.189  0.00  0.00    +0.000 C 
ATOM      9  C11 UNL     1     155.847 159.867 171.014  0.00  0.00    +0.000 C 
ATOM     10  C12 UNL     1     154.491 159.354 170.705  0.00  0.00    +0.000 A 
ATOM     11  C13 UNL     1     153.337 159.816 171.287  0.00  0.00    +0.000 A 
ATOM     12  C14 UNL     1     152.129 159.266 170.931  0.00  0.00    +0.000 A 
ATOM     13  C15 UNL     1     152.106 158.259 169.994  0.00  0.00    +0.000 A 
ATOM     14  C16 UNL     1     153.255 157.762 169.380  0.00  0.00    +0.000 A 
ATOM     15  C17 UNL     1     154.453 158.329 169.753  0.00  0.00    +0.000 A 
ATOM     16  H5  UNL     1     157.745 156.838 167.886  0.00  0.00    +0.000 HD
ENDROOT
BRANCH   1  22
ATOM     17 CL1  UNL     1     159.728 152.426 163.819  0.00  0.00    +0.000 Cl
ATOM     18  C1  UNL     1     159.571 154.065 164.401  0.00  0.00    +0.000 A 
ATOM     19  C2  UNL     1     160.671 154.898 164.329  0.00  0.00    +0.000 A 
ATOM     20  C3  UNL     1     160.559 156.194 164.786  0.00  0.00    +0.000 A 
ATOM     21  C4  UNL     1     159.359 156.635 165.303  0.00  0.00    +0.000 A 
ATOM     22  C5  UNL     1     158.248 155.826 165.386  0.00  0.00    +0.000 A 
ATOM     23  C6  UNL     1     158.372 154.536 164.928  0.00  0.00    +0.000 A 
ENDBRANCH   1  22
TORSDOF 1
ENDMDL
MODEL 2
REMARK VINA RESULT:      -6.3      2.626      3.725
REMARK  Name = ./3D_structures\o41_MMV1782351_3D.pdb
REMARK  1 active torsions:
REMARK  status: ('A' for Active; 'I' for Inactive)
REMARK    1  A    between atoms: C5_6  and  C7_8
REMARK                            x       y       z     vdW  Elec       q    Type
REMARK                         _______ _______ _______ _____ _____    ______ ____
ROOT
ATOM      1  C7  UNL     1     157.956 158.379 169.287  0.00  0.00    +0.000 C 
ATOM      2  O1  UNL     1     158.433 158.261 170.454  0.00  0.00    +0.000 OA
ATOM      3  N1  UNL     1     156.598 158.782 169.211  0.00  0.00    +0.000 N 
ATOM      4  C8  UNL     1     155.810 159.042 170.397  0.00  0.00    +0.000 C 
ATOM      5  O2  UNL     1     156.390 158.892 171.498  0.00  0.00    +0.000 OA
ATOM      6  N2  UNL     1     154.457 159.444 170.280  0.00  0.00    +0.000 N 
ATOM      7  C9  UNL     1     153.865 159.516 168.954  0.00  0.00    +0.000 C 
ATOM      8  C10 UNL     1     152.380 159.658 168.960  0.00  0.00    +0.000 C 
ATOM      9  C11 UNL     1     151.759 158.890 170.131  0.00  0.00    +0.000 C 
ATOM     10  C12 UNL     1     152.268 159.502 171.382  0.00  0.00    +0.000 A 
ATOM     11  C13 UNL     1     151.486 159.810 172.467  0.00  0.00    +0.000 A 
ATOM     12  C14 UNL     1     152.060 160.381 173.577  0.00  0.00    +0.000 A 
ATOM     13  C15 UNL     1     153.413 160.632 173.574  0.00  0.00    +0.000 A 
ATOM     14  C16 UNL     1     154.241 160.335 172.492  0.00  0.00    +0.000 A 
ATOM     15  C17 UNL     1     153.643 159.763 171.392  0.00  0.00    +0.000 A 
ATOM     16  H5  UNL     1     156.141 158.899 168.300  0.00  0.00    +0.000 HD
ENDROOT
BRANCH   1  22
ATOM     17 CL1  UNL     1     158.460 156.435 164.459  0.00  0.00    +0.000 Cl
ATOM     18  C1  UNL     1     159.080 157.243 165.878  0.00  0.00    +0.000 A 
ATOM     19  C2  UNL     1     160.401 157.651 165.879  0.00  0.00    +0.000 A 
ATOM     20  C3  UNL     1     160.901 158.290 166.992  0.00  0.00    +0.000 A 
ATOM     21  C4  UNL     1     160.083 158.511 168.080  0.00  0.00    +0.000 A 
ATOM     22  C5  UNL     1     158.763 158.115 168.105  0.00  0.00    +0.000 A 
ATOM     23  C6  UNL     1     158.276 157.478 166.988  0.00  0.00    +0.000 A 
ENDBRANCH   1  22
TORSDOF 1
ENDMDL
MODEL 3
REMARK VINA RESULT:      -6.2      1.603      1.953
REMARK  Name = ./3D_structures\o41_MMV1782351_3D.pdb
REMARK  1 active torsions:
REMARK  status: ('A' for Active; 'I' for Inactive)
REMARK    1  A    between atoms: C5_6  and  C7_8
REMARK                            x       y       z     vdW  Elec       q    Type
REMARK                         _______ _______ _______ _____ _____    ______ ____
ROOT
ATOM      1  C7  UNL     1     156.589 156.930 166.413  0.00  0.00    +0.000 C 
ATOM      2  O1  UNL     1     155.542 156.718 165.734  0.00  0.00    +0.000 OA
ATOM      3  N1  UNL     1     156.389 157.479 167.704  0.00  0.00    +0.000 N 
ATOM      4  C8  UNL     1     155.066 157.777 168.212  0.00  0.00    +0.000 C 
ATOM      5  O2  UNL     1     154.104 157.524 167.449  0.00  0.00    +0.000 OA
ATOM      6  N2  UNL     1     154.907 158.325 169.508  0.00  0.00    +0.000 N 
ATOM      7  C9  UNL     1     156.096 158.645 170.280  0.00  0.00    +0.000 C 
ATOM      8  C10 UNL     1     155.829 159.477 171.489  0.00  0.00    +0.000 C 
ATOM      9  C11 UNL     1     154.685 160.464 171.236  0.00  0.00    +0.000 C 
ATOM     10  C12 UNL     1     153.464 159.666 170.967  0.00  0.00    +0.000 A 
ATOM     11  C13 UNL     1     152.234 159.923 171.521  0.00  0.00    +0.000 A 
ATOM     12  C14 UNL     1     151.167 159.117 171.208  0.00  0.00    +0.000 A 
ATOM     13  C15 UNL     1     151.358 158.065 170.341  0.00  0.00    +0.000 A 
ATOM     14  C16 UNL     1     152.590 157.771 169.759  0.00  0.00    +0.000 A 
ATOM     15  C17 UNL     1     153.644 158.593 170.087  0.00  0.00    +0.000 A 
ATOM     16  H5  UNL     1     157.190 157.679 168.315  0.00  0.00    +0.000 HD
ENDROOT
BRANCH   1  22
ATOM     17 CL1  UNL     1     161.657 158.100 165.872  0.00  0.00    +0.000 Cl
ATOM     18  C1  UNL     1     160.260 157.091 165.589  0.00  0.00    +0.000 A 
ATOM     19  C2  UNL     1     160.417 155.947 164.829  0.00  0.00    +0.000 A 
ATOM     20  C3  UNL     1     159.322 155.143 164.599  0.00  0.00    +0.000 A 
ATOM     21  C4  UNL     1     158.096 155.490 165.127  0.00  0.00    +0.000 A 
ATOM     22  C5  UNL     1     157.912 156.624 165.887  0.00  0.00    +0.000 A 
ATOM     23  C6  UNL     1     159.012 157.418 166.109  0.00  0.00    +0.000 A 
ENDBRANCH   1  22
TORSDOF 1
ENDMDL
MODEL 4
REMARK VINA RESULT:      -6.2      7.603     10.331
REMARK  Name = ./3D_structures\o41_MMV1782351_3D.pdb
REMARK  1 active torsions:
REMARK  status: ('A' for Active; 'I' for Inactive)
REMARK    1  A    between atoms: C5_6  and  C7_8
REMARK                            x       y       z     vdW  Elec       q    Type
REMARK                         _______ _______ _______ _____ _____    ______ ____
ROOT
ATOM      1  C7  UNL     1     148.870 160.274 168.351  0.00  0.00    +0.000 C 
ATOM      2  O1  UNL     1     147.858 159.718 167.831  0.00  0.00    +0.000 OA
ATOM      3  N1  UNL     1     148.920 161.688 168.250  0.00  0.00    +0.000 N 
ATOM      4  C8  UNL     1     147.874 162.444 167.594  0.00  0.00    +0.000 C 
ATOM      5  O2  UNL     1     146.921 161.785 167.118  0.00  0.00    +0.000 OA
ATOM      6  N2  UNL     1     147.959 163.856 167.515  0.00  0.00    +0.000 N 
ATOM      7  C9  UNL     1     149.145 164.513 168.038  0.00  0.00    +0.000 C 
ATOM      8  C10 UNL     1     149.268 165.947 167.646  0.00  0.00    +0.000 C 
ATOM      9  C11 UNL     1     148.716 166.180 166.237  0.00  0.00    +0.000 C 
ATOM     10  C12 UNL     1     147.270 165.851 166.267  0.00  0.00    +0.000 A 
ATOM     11  C13 UNL     1     146.288 166.625 165.702  0.00  0.00    +0.000 A 
ATOM     12  C14 UNL     1     144.975 166.229 165.792  0.00  0.00    +0.000 A 
ATOM     13  C15 UNL     1     144.676 165.058 166.452  0.00  0.00    +0.000 A 
ATOM     14  C16 UNL     1     145.644 164.245 167.038  0.00  0.00    +0.000 A 
ATOM     15  C17 UNL     1     146.952 164.663 166.934  0.00  0.00    +0.000 A 
ATOM     16  H5  UNL     1     149.709 162.210 168.647  0.00  0.00    +0.000 HD
ENDROOT
BRANCH   1  22
ATOM     17 CL1  UNL     1     153.891 159.543 169.616  0.00  0.00    +0.000 Cl
ATOM     18  C1  UNL     1     152.206 159.087 169.633  0.00  0.00    +0.000 A 
ATOM     19  C2  UNL     1     151.843 157.932 170.302  0.00  0.00    +0.000 A 
ATOM     20  C3  UNL     1     150.515 157.562 170.322  0.00  0.00    +0.000 A 
ATOM     21  C4  UNL     1     149.577 158.343 169.681  0.00  0.00    +0.000 A 
ATOM     22  C5  UNL     1     149.913 159.497 169.007  0.00  0.00    +0.000 A 
ATOM     23  C6  UNL     1     151.239 159.856 168.994  0.00  0.00    +0.000 A 
ENDBRANCH   1  22
TORSDOF 1
ENDMDL
MODEL 5
REMARK VINA RESULT:      -6.2      3.082      7.869
REMARK  Name = ./3D_structures\o41_MMV1782351_3D.pdb
REMARK  1 active torsions:
REMARK  status: ('A' for Active; 'I' for Inactive)
REMARK    1  A    between atoms: C5_6  and  C7_8
REMARK                            x       y       z     vdW  Elec       q    Type
REMARK                         _______ _______ _______ _____ _____    ______ ____
ROOT
ATOM      1  C7  UNL     1     156.385 157.359 168.112  0.00  0.00    +0.000 C 
ATOM      2  O1  UNL     1     155.323 156.826 167.676  0.00  0.00    +0.000 OA
ATOM      3  N1  UNL     1     157.527 157.234 167.280  0.00  0.00    +0.000 N 
ATOM      4  C8  UNL     1     157.476 156.538 166.011  0.00  0.00    +0.000 C 
ATOM      5  O2  UNL     1     156.369 156.051 165.684  0.00  0.00    +0.000 OA
ATOM      6  N2  UNL     1     158.639 156.434 165.209  0.00  0.00    +0.000 N 
ATOM      7  C9  UNL     1     159.888 156.974 165.719  0.00  0.00    +0.000 C 
ATOM      8  C10 UNL     1     161.091 156.558 164.941  0.00  0.00    +0.000 C 
ATOM      9  C11 UNL     1     160.934 155.132 164.407  0.00  0.00    +0.000 C 
ATOM     10  C12 UNL     1     159.781 155.133 163.473  0.00  0.00    +0.000 A 
ATOM     11  C13 UNL     1     159.783 154.530 162.241  0.00  0.00    +0.000 A 
ATOM     12  C14 UNL     1     158.661 154.596 161.451  0.00  0.00    +0.000 A 
ATOM     13  C15 UNL     1     157.555 155.270 161.918  0.00  0.00    +0.000 A 
ATOM     14  C16 UNL     1     157.514 155.895 163.164  0.00  0.00    +0.000 A 
ATOM     15  C17 UNL     1     158.651 155.815 163.937  0.00  0.00    +0.000 A 
ATOM     16  H5  UNL     1     158.426 157.639 167.566  0.00  0.00    +0.000 HD
ENDROOT
BRANCH   1  22
ATOM     17 CL1  UNL     1     153.979 160.045 171.898  0.00  0.00    +0.000 Cl
ATOM     18  C1  UNL     1     155.385 159.300 171.180  0.00  0.00    +0.000 A 
ATOM     19  C2  UNL     1     156.589 159.375 171.856  0.00  0.00    +0.000 A 
ATOM     20  C3  UNL     1     157.705 158.790 171.299  0.00  0.00    +0.000 A 
ATOM     21  C4  UNL     1     157.606 158.145 170.084  0.00  0.00    +0.000 A 
ATOM     22  C5  UNL     1     156.419 158.056 169.390  0.00  0.00    +0.000 A 
ATOM     23  C6  UNL     1     155.312 158.643 169.956  0.00  0.00    +0.000 A 
ENDBRANCH   1  22
TORSDOF 1
ENDMDL
MODEL 6
REMARK VINA RESULT:      -6.2      7.721     11.022
REMARK  Name = ./3D_structures\o41_MMV1782351_3D.pdb
REMARK  1 active torsions:
REMARK  status: ('A' for Active; 'I' for Inactive)
REMARK    1  A    between atoms: C5_6  and  C7_8
REMARK                            x       y       z     vdW  Elec       q    Type
REMARK                         _______ _______ _______ _____ _____    ______ ____
ROOT
ATOM      1  C7  UNL     1     148.138 163.385 168.045  0.00  0.00    +0.000 C 
ATOM      2  O1  UNL     1     147.823 163.121 169.242  0.00  0.00    +0.000 OA
ATOM      3  N1  UNL     1     149.234 162.655 167.517  0.00  0.00    +0.000 N 
ATOM      4  C8  UNL     1     149.944 161.669 168.304  0.00  0.00    +0.000 C 
ATOM      5  O2  UNL     1     149.541 161.492 169.477  0.00  0.00    +0.000 OA
ATOM      6  N2  UNL     1     151.033 160.959 167.741  0.00  0.00    +0.000 N 
ATOM      7  C9  UNL     1     151.462 161.296 166.393  0.00  0.00    +0.000 C 
ATOM      8  C10 UNL     1     152.779 160.709 166.012  0.00  0.00    +0.000 C 
ATOM      9  C11 UNL     1     153.723 160.647 167.217  0.00  0.00    +0.000 C 
ATOM     10  C12 UNL     1     153.107 159.741 168.216  0.00  0.00    +0.000 A 
ATOM     11  C13 UNL     1     153.786 158.760 168.895  0.00  0.00    +0.000 A 
ATOM     12  C14 UNL     1     153.116 157.971 169.797  0.00  0.00    +0.000 A 
ATOM     13  C15 UNL     1     151.772 158.184 170.001  0.00  0.00    +0.000 A 
ATOM     14  C16 UNL     1     151.047 159.169 169.332  0.00  0.00    +0.000 A 
ATOM     15  C17 UNL     1     151.740 159.947 168.432  0.00  0.00    +0.000 A 
ATOM     16  H5  UNL     1     149.549 162.814 166.554  0.00  0.00    +0.000 HD
ENDROOT
BRANCH   1  22
ATOM     17 CL1  UNL     1     143.700 165.153 165.919  0.00  0.00    +0.000 Cl
ATOM     18  C1  UNL     1     145.409 165.265 166.255  0.00  0.00    +0.000 A 
ATOM     19  C2  UNL     1     146.108 166.350 165.760  0.00  0.00    +0.000 A 
ATOM     20  C3  UNL     1     147.458 166.449 166.020  0.00  0.00    +0.000 A 
ATOM     21  C4  UNL     1     148.086 165.472 166.763  0.00  0.00    +0.000 A 
ATOM     22  C5  UNL     1     147.412 164.381 167.268  0.00  0.00    +0.000 A 
ATOM     23  C6  UNL     1     146.067 164.293 167.002  0.00  0.00    +0.000 A 
ENDBRANCH   1  22
TORSDOF 1
ENDMDL
MODEL 7
REMARK VINA RESULT:      -6.1      3.834      8.053
REMARK  Name = ./3D_structures\o41_MMV1782351_3D.pdb
REMARK  1 active torsions:
REMARK  status: ('A' for Active; 'I' for Inactive)
REMARK    1  A    between atoms: C5_6  and  C7_8
REMARK                            x       y       z     vdW  Elec       q    Type
REMARK                         _______ _______ _______ _____ _____    ______ ____
ROOT
ATOM      1  C7  UNL     1     156.222 158.754 170.617  0.00  0.00    +0.000 C 
ATOM      2  O1  UNL     1     157.157 157.957 170.920  0.00  0.00    +0.000 OA
ATOM      3  N1  UNL     1     156.002 158.951 169.230  0.00  0.00    +0.000 N 
ATOM      4  C8  UNL     1     156.802 158.280 168.226  0.00  0.00    +0.000 C 
ATOM      5  O2  UNL     1     157.699 157.514 168.647  0.00  0.00    +0.000 OA
ATOM      6  N2  UNL     1     156.551 158.503 166.850  0.00  0.00    +0.000 N 
ATOM      7  C9  UNL     1     155.531 159.468 166.475  0.00  0.00    +0.000 C 
ATOM      8  C10 UNL     1     155.551 159.841 165.031  0.00  0.00    +0.000 C 
ATOM      9  C11 UNL     1     156.982 159.858 164.486  0.00  0.00    +0.000 C 
ATOM     10  C12 UNL     1     157.514 158.478 164.596  0.00  0.00    +0.000 A 
ATOM     11  C13 UNL     1     158.205 157.833 163.600  0.00  0.00    +0.000 A 
ATOM     12  C14 UNL     1     158.649 156.549 163.804  0.00  0.00    +0.000 A 
ATOM     13  C15 UNL     1     158.390 155.937 165.008  0.00  0.00    +0.000 A 
ATOM     14  C16 UNL     1     157.693 156.558 166.044  0.00  0.00    +0.000 A 
ATOM     15  C17 UNL     1     157.257 157.844 165.816  0.00  0.00    +0.000 A 
ATOM     16  H5  UNL     1     155.262 159.583 168.905  0.00  0.00    +0.000 HD
ENDROOT
BRANCH   1  22
ATOM     17 CL1  UNL     1     151.852 161.211 172.107  0.00  0.00    +0.000 Cl
ATOM     18  C1  UNL     1     153.446 160.562 172.407  0.00  0.00    +0.000 A 
ATOM     19  C2  UNL     1     153.979 160.688 173.676  0.00  0.00    +0.000 A 
ATOM     20  C3  UNL     1     155.236 160.180 173.925  0.00  0.00    +0.000 A 
ATOM     21  C4  UNL     1     155.936 159.559 172.912  0.00  0.00    +0.000 A 
ATOM     22  C5  UNL     1     155.427 159.420 171.639  0.00  0.00    +0.000 A 
ATOM     23  C6  UNL     1     154.173 159.931 171.403  0.00  0.00    +0.000 A 
ENDBRANCH   1  22
TORSDOF 1
ENDMDL
MODEL 8
REMARK VINA RESULT:      -6.1      7.323     11.000
REMARK  Name = ./3D_structures\o41_MMV1782351_3D.pdb
REMARK  1 active torsions:
REMARK  status: ('A' for Active; 'I' for Inactive)
REMARK    1  A    between atoms: C5_6  and  C7_8
REMARK                            x       y       z     vdW  Elec       q    Type
REMARK                         _______ _______ _______ _____ _____    ______ ____
ROOT
ATOM      1  C7  UNL     1     149.338 162.585 168.424  0.00  0.00    +0.000 C 
ATOM      2  O1  UNL     1     149.639 161.714 169.292  0.00  0.00    +0.000 OA
ATOM      3  N1  UNL     1     150.208 162.672 167.308  0.00  0.00    +0.000 N 
ATOM      4  C8  UNL     1     151.368 161.814 167.173  0.00  0.00    +0.000 C 
ATOM      5  O2  UNL     1     151.563 160.989 168.096  0.00  0.00    +0.000 OA
ATOM      6  N2  UNL     1     152.212 161.931 166.042  0.00  0.00    +0.000 N 
ATOM      7  C9  UNL     1     151.931 162.971 165.067  0.00  0.00    +0.000 C 
ATOM      8  C10 UNL     1     153.032 163.197 164.086  0.00  0.00    +0.000 C 
ATOM      9  C11 UNL     1     154.402 162.987 164.739  0.00  0.00    +0.000 C 
ATOM     10  C12 UNL     1     154.475 161.570 165.170  0.00  0.00    +0.000 A 
ATOM     11  C13 UNL     1     155.558 160.753 164.963  0.00  0.00    +0.000 A 
ATOM     12  C14 UNL     1     155.519 159.451 165.399  0.00  0.00    +0.000 A 
ATOM     13  C15 UNL     1     154.388 158.995 166.037  0.00  0.00    +0.000 A 
ATOM     14  C16 UNL     1     153.268 159.793 166.266  0.00  0.00    +0.000 A 
ATOM     15  C17 UNL     1     153.331 161.094 165.820  0.00  0.00    +0.000 A 
ATOM     16  H5  UNL     1     150.031 163.354 166.562  0.00  0.00    +0.000 HD
ENDROOT
BRANCH   1  22
ATOM     17 CL1  UNL     1     145.261 165.129 166.363  0.00  0.00    +0.000 Cl
ATOM     18  C1  UNL     1     146.267 164.642 167.705  0.00  0.00    +0.000 A 
ATOM     19  C2  UNL     1     145.938 165.088 168.971  0.00  0.00    +0.000 A 
ATOM     20  C3  UNL     1     146.724 164.709 170.037  0.00  0.00    +0.000 A 
ATOM     21  C4  UNL     1     147.819 163.897 169.826  0.00  0.00    +0.000 A 
ATOM     22  C5  UNL     1     148.169 163.439 168.575  0.00  0.00    +0.000 A 
ATOM     23  C6  UNL     1     147.377 163.824 167.519  0.00  0.00    +0.000 A 
ENDBRANCH   1  22
TORSDOF 1
ENDMDL
MODEL 9
REMARK VINA RESULT:      -6.1      6.295      8.668
REMARK  Name = ./3D_structures\o41_MMV1782351_3D.pdb
REMARK  1 active torsions:
REMARK  status: ('A' for Active; 'I' for Inactive)
REMARK    1  A    between atoms: C5_6  and  C7_8
REMARK                            x       y       z     vdW  Elec       q    Type
REMARK                         _______ _______ _______ _____ _____    ______ ____
ROOT
ATOM      1  C7  UNL     1     151.898 161.071 167.991  0.00  0.00    +0.000 C 
ATOM      2  O1  UNL     1     152.459 162.205 167.926  0.00  0.00    +0.000 OA
ATOM      3  N1  UNL     1     150.483 161.074 167.903  0.00  0.00    +0.000 N 
ATOM      4  C8  UNL     1     149.729 162.301 167.749  0.00  0.00    +0.000 C 
ATOM      5  O2  UNL     1     150.393 163.363 167.696  0.00  0.00    +0.000 OA
ATOM      6  N2  UNL     1     148.316 162.263 167.664  0.00  0.00    +0.000 N 
ATOM      7  C9  UNL     1     147.644 160.982 167.809  0.00  0.00    +0.000 C 
ATOM      8  C10 UNL     1     146.168 161.090 167.998  0.00  0.00    +0.000 C 
ATOM      9  C11 UNL     1     145.807 162.339 168.807  0.00  0.00    +0.000 C 
ATOM     10  C12 UNL     1     146.240 163.518 168.019  0.00  0.00    +0.000 A 
ATOM     11  C13 UNL     1     145.476 164.641 167.822  0.00  0.00    +0.000 A 
ATOM     12  C14 UNL     1     145.973 165.677 167.069  0.00  0.00    +0.000 A 
ATOM     13  C15 UNL     1     147.232 165.562 166.526  0.00  0.00    +0.000 A 
ATOM     14  C16 UNL     1     148.039 164.439 166.702  0.00  0.00    +0.000 A 
ATOM     15  C17 UNL     1     147.520 163.414 167.462  0.00  0.00    +0.000 A 
ATOM     16  H5  UNL     1     149.957 160.194 167.949  0.00  0.00    +0.000 HD
ENDROOT
BRANCH   1  22
ATOM     17 CL1  UNL     1     155.456 157.676 166.214  0.00  0.00    +0.000 Cl
ATOM     18  C1  UNL     1     154.301 158.232 167.399  0.00  0.00    +0.000 A 
ATOM     19  C2  UNL     1     154.110 157.475 168.540  0.00  0.00    +0.000 A 
ATOM     20  C3  UNL     1     153.201 157.904 169.482  0.00  0.00    +0.000 A 
ATOM     21  C4  UNL     1     152.501 159.074 169.274  0.00  0.00    +0.000 A 
ATOM     22  C5  UNL     1     152.672 159.847 168.146  0.00  0.00    +0.000 A 
ATOM     23  C6  UNL     1     153.581 159.408 167.214  0.00  0.00    +0.000 A 
ENDBRANCH   1  22
TORSDOF 1
ENDMDL
