MODEL 1
REMARK VINA RESULT:      -4.8      0.000      0.000
REMARK  Name = ./3D_structures\o42_MMV1782387_3D.pdb
REMARK  3 active torsions:
REMARK  status: ('A' for Active; 'I' for Inactive)
REMARK    1  A    between atoms: C1_1  and  O1_2
REMARK    2  A    between atoms: O1_2  and  C2_3
REMARK    3  A    between atoms: C5_9  and  C6_10
REMARK                            x       y       z     vdW  Elec       q    Type
REMARK                         _______ _______ _______ _____ _____    ______ ____
ROOT
ATOM      1  C2  UNL     1     145.460 166.825 165.722  0.00  0.00    +0.000 C 
ATOM      2  O2  UNL     1     146.228 167.783 165.580  0.00  0.00    +0.000 OA
ATOM      3  N1  UNL     1     145.970 165.588 166.137  0.00  0.00    +0.000 N 
ATOM      4  C3  UNL     1     147.334 165.294 166.426  0.00  0.00    +0.000 A 
ATOM      5  N2  UNL     1     147.841 164.110 166.825  0.00  0.00    +0.000 NA
ATOM      6  C4  UNL     1     149.165 164.221 166.999  0.00  0.00    +0.000 A 
ATOM      7  C5  UNL     1     150.134 163.311 167.395  0.00  0.00    +0.000 A 
ATOM      8  C6  UNL     1     149.744 161.934 167.709  0.00  0.00    +0.000 C 
ATOM      9  C7  UNL     1     151.438 163.718 167.486  0.00  0.00    +0.000 A 
ATOM     10  C8  UNL     1     151.820 165.032 167.188  0.00  0.00    +0.000 A 
ATOM     11  C9  UNL     1     150.839 165.941 166.790  0.00  0.00    +0.000 A 
ATOM     12  C10 UNL     1     149.530 165.520 166.703  0.00  0.00    +0.000 A 
ATOM     13  N3  UNL     1     148.380 166.129 166.360  0.00  0.00    +0.000 N 
ATOM     14  H4  UNL     1     145.263 164.802 166.241  0.00  0.00    +0.000 HD
ATOM     15  H11 UNL     1     148.356 167.133 166.084  0.00  0.00    +0.000 HD
ENDROOT
BRANCH   1  17
ATOM     16  C1  UNL     1     143.192 165.980 165.413  0.00  0.00    +0.000 C 
ATOM     17  O1  UNL     1     144.113 167.058 165.451  0.00  0.00    +0.000 OA
ENDBRANCH   1  17
TORSDOF 1
ENDMDL
MODEL 2
REMARK VINA RESULT:      -4.8     11.308     12.852
REMARK  Name = ./3D_structures\o42_MMV1782387_3D.pdb
REMARK  3 active torsions:
REMARK  status: ('A' for Active; 'I' for Inactive)
REMARK    1  A    between atoms: C1_1  and  O1_2
REMARK    2  A    between atoms: O1_2  and  C2_3
REMARK    3  A    between atoms: C5_9  and  C6_10
REMARK                            x       y       z     vdW  Elec       q    Type
REMARK                         _______ _______ _______ _____ _____    ______ ____
ROOT
ATOM      1  C2  UNL     1     157.745 155.565 164.173  0.00  0.00    +0.000 C 
ATOM      2  O2  UNL     1     158.869 155.803 164.629  0.00  0.00    +0.000 OA
ATOM      3  N1  UNL     1     156.611 155.906 164.920  0.00  0.00    +0.000 N 
ATOM      4  C3  UNL     1     156.603 156.522 166.204  0.00  0.00    +0.000 A 
ATOM      5  N2  UNL     1     155.522 156.857 166.937  0.00  0.00    +0.000 NA
ATOM      6  C4  UNL     1     155.913 157.418 168.089  0.00  0.00    +0.000 A 
ATOM      7  C5  UNL     1     155.204 157.924 169.168  0.00  0.00    +0.000 A 
ATOM      8  C6  UNL     1     153.739 157.890 169.149  0.00  0.00    +0.000 C 
ATOM      9  C7  UNL     1     155.887 158.448 170.233  0.00  0.00    +0.000 A 
ATOM     10  C8  UNL     1     157.287 158.485 170.261  0.00  0.00    +0.000 A 
ATOM     11  C9  UNL     1     157.992 157.973 169.171  0.00  0.00    +0.000 A 
ATOM     12  C10 UNL     1     157.293 157.449 168.106  0.00  0.00    +0.000 A 
ATOM     13  N3  UNL     1     157.662 156.893 166.937  0.00  0.00    +0.000 N 
ATOM     14  H4  UNL     1     155.672 155.677 164.477  0.00  0.00    +0.000 HD
ATOM     15  H11 UNL     1     158.665 156.785 166.677  0.00  0.00    +0.000 HD
ENDROOT
BRANCH   1  17
ATOM     16  C1  UNL     1     157.778 155.745 161.739  0.00  0.00    +0.000 C 
ATOM     17  O1  UNL     1     157.695 154.960 162.917  0.00  0.00    +0.000 OA
ENDBRANCH   1  17
TORSDOF 1
ENDMDL
MODEL 3
REMARK VINA RESULT:      -4.8     10.020     10.148
REMARK  Name = ./3D_structures\o42_MMV1782387_3D.pdb
REMARK  3 active torsions:
REMARK  status: ('A' for Active; 'I' for Inactive)
REMARK    1  A    between atoms: C1_1  and  O1_2
REMARK    2  A    between atoms: O1_2  and  C2_3
REMARK    3  A    between atoms: C5_9  and  C6_10
REMARK                            x       y       z     vdW  Elec       q    Type
REMARK                         _______ _______ _______ _____ _____    ______ ____
ROOT
ATOM      1  C2  UNL     1     145.499 174.843 164.934  0.00  0.00    +0.000 C 
ATOM      2  O2  UNL     1     145.475 174.641 163.714  0.00  0.00    +0.000 OA
ATOM      3  N1  UNL     1     146.730 174.984 165.586  0.00  0.00    +0.000 N 
ATOM      4  C3  UNL     1     148.017 174.917 164.978  0.00  0.00    +0.000 A 
ATOM      5  N2  UNL     1     149.211 175.050 165.589  0.00  0.00    +0.000 NA
ATOM      6  C4  UNL     1     150.197 174.929 164.690  0.00  0.00    +0.000 A 
ATOM      7  C5  UNL     1     151.577 174.985 164.805  0.00  0.00    +0.000 A 
ATOM      8  C6  UNL     1     152.183 175.218 166.119  0.00  0.00    +0.000 C 
ATOM      9  C7  UNL     1     152.351 174.822 163.687  0.00  0.00    +0.000 A 
ATOM     10  C8  UNL     1     151.781 174.599 162.426  0.00  0.00    +0.000 A 
ATOM     11  C9  UNL     1     150.391 174.544 162.320  0.00  0.00    +0.000 A 
ATOM     12  C10 UNL     1     149.624 174.709 163.452  0.00  0.00    +0.000 A 
ATOM     13  N3  UNL     1     148.299 174.712 163.684  0.00  0.00    +0.000 N 
ATOM     14  H4  UNL     1     146.688 175.155 166.634  0.00  0.00    +0.000 HD
ATOM     15  H11 UNL     1     147.610 174.567 162.915  0.00  0.00    +0.000 HD
ENDROOT
BRANCH   1  17
ATOM     16  C1  UNL     1     143.090 175.218 164.847  0.00  0.00    +0.000 C 
ATOM     17  O1  UNL     1     144.266 174.916 165.579  0.00  0.00    +0.000 OA
ENDBRANCH   1  17
TORSDOF 1
ENDMDL
MODEL 4
REMARK VINA RESULT:      -4.8      9.030     10.693
REMARK  Name = ./3D_structures\o42_MMV1782387_3D.pdb
REMARK  3 active torsions:
REMARK  status: ('A' for Active; 'I' for Inactive)
REMARK    1  A    between atoms: C1_1  and  O1_2
REMARK    2  A    between atoms: O1_2  and  C2_3
REMARK    3  A    between atoms: C5_9  and  C6_10
REMARK                            x       y       z     vdW  Elec       q    Type
REMARK                         _______ _______ _______ _____ _____    ______ ____
ROOT
ATOM      1  C2  UNL     1     151.394 174.045 164.818  0.00  0.00    +0.000 C 
ATOM      2  O2  UNL     1     151.196 174.580 163.721  0.00  0.00    +0.000 OA
ATOM      3  N1  UNL     1     150.306 173.750 165.648  0.00  0.00    +0.000 N 
ATOM      4  C3  UNL     1     148.934 174.008 165.362  0.00  0.00    +0.000 A 
ATOM      5  N2  UNL     1     147.875 173.732 166.148  0.00  0.00    +0.000 NA
ATOM      6  C4  UNL     1     146.746 174.119 165.540  0.00  0.00    +0.000 A 
ATOM      7  C5  UNL     1     145.414 174.060 165.919  0.00  0.00    +0.000 A 
ATOM      8  C6  UNL     1     145.059 173.479 167.217  0.00  0.00    +0.000 C 
ATOM      9  C7  UNL     1     144.453 174.545 165.073  0.00  0.00    +0.000 A 
ATOM     10  C8  UNL     1     144.782 175.102 163.830  0.00  0.00    +0.000 A 
ATOM     11  C9  UNL     1     146.125 175.157 163.457  0.00  0.00    +0.000 A 
ATOM     12  C10 UNL     1     147.082 174.666 164.317  0.00  0.00    +0.000 A 
ATOM     13  N3  UNL     1     148.424 174.574 164.259  0.00  0.00    +0.000 N 
ATOM     14  H4  UNL     1     150.537 173.291 166.578  0.00  0.00    +0.000 HD
ATOM     15  H11 UNL     1     148.959 174.916 163.432  0.00  0.00    +0.000 HD
ENDROOT
BRANCH   1  17
ATOM     16  C1  UNL     1     153.043 173.210 166.411  0.00  0.00    +0.000 C 
ATOM     17  O1  UNL     1     152.720 173.770 165.149  0.00  0.00    +0.000 OA
ENDBRANCH   1  17
TORSDOF 1
ENDMDL
MODEL 5
REMARK VINA RESULT:      -4.6      3.119      4.303
REMARK  Name = ./3D_structures\o42_MMV1782387_3D.pdb
REMARK  3 active torsions:
REMARK  status: ('A' for Active; 'I' for Inactive)
REMARK    1  A    between atoms: C1_1  and  O1_2
REMARK    2  A    between atoms: O1_2  and  C2_3
REMARK    3  A    between atoms: C5_9  and  C6_10
REMARK                            x       y       z     vdW  Elec       q    Type
REMARK                         _______ _______ _______ _____ _____    ______ ____
ROOT
ATOM      1  C2  UNL     1     148.676 165.915 166.224  0.00  0.00    +0.000 C 
ATOM      2  O2  UNL     1     148.546 164.945 166.980  0.00  0.00    +0.000 OA
ATOM      3  N1  UNL     1     149.797 165.993 165.389  0.00  0.00    +0.000 N 
ATOM      4  C3  UNL     1     150.853 165.041 165.306  0.00  0.00    +0.000 A 
ATOM      5  N2  UNL     1     151.939 165.100 164.509  0.00  0.00    +0.000 NA
ATOM      6  C4  UNL     1     152.708 164.023 164.711  0.00  0.00    +0.000 A 
ATOM      7  C5  UNL     1     153.911 163.616 164.152  0.00  0.00    +0.000 A 
ATOM      8  C6  UNL     1     154.551 164.452 163.133  0.00  0.00    +0.000 C 
ATOM      9  C7  UNL     1     154.478 162.440 164.564  0.00  0.00    +0.000 A 
ATOM     10  C8  UNL     1     153.873 161.634 165.537  0.00  0.00    +0.000 A 
ATOM     11  C9  UNL     1     152.663 162.051 166.094  0.00  0.00    +0.000 A 
ATOM     12  C10 UNL     1     152.103 163.237 165.672  0.00  0.00    +0.000 A 
ATOM     13  N3  UNL     1     150.980 163.901 165.999  0.00  0.00    +0.000 N 
ATOM     14  H4  UNL     1     149.854 166.849 164.762  0.00  0.00    +0.000 HD
ATOM     15  H11 UNL     1     150.317 163.532 166.714  0.00  0.00    +0.000 HD
ENDROOT
BRANCH   1  17
ATOM     16  C1  UNL     1     146.394 166.609 165.706  0.00  0.00    +0.000 C 
ATOM     17  O1  UNL     1     147.669 166.878 166.265  0.00  0.00    +0.000 OA
ENDBRANCH   1  17
TORSDOF 1
ENDMDL
MODEL 6
REMARK VINA RESULT:      -4.5      5.684      7.451
REMARK  Name = ./3D_structures\o42_MMV1782387_3D.pdb
REMARK  3 active torsions:
REMARK  status: ('A' for Active; 'I' for Inactive)
REMARK    1  A    between atoms: C1_1  and  O1_2
REMARK    2  A    between atoms: O1_2  and  C2_3
REMARK    3  A    between atoms: C5_9  and  C6_10
REMARK                            x       y       z     vdW  Elec       q    Type
REMARK                         _______ _______ _______ _____ _____    ______ ____
ROOT
ATOM      1  C2  UNL     1     151.999 163.093 165.051  0.00  0.00    +0.000 C 
ATOM      2  O2  UNL     1     151.385 163.170 166.121  0.00  0.00    +0.000 OA
ATOM      3  N1  UNL     1     152.887 162.032 164.839  0.00  0.00    +0.000 N 
ATOM      4  C3  UNL     1     153.178 160.982 165.758  0.00  0.00    +0.000 A 
ATOM      5  N2  UNL     1     154.029 159.954 165.571  0.00  0.00    +0.000 NA
ATOM      6  C4  UNL     1     154.037 159.170 166.657  0.00  0.00    +0.000 A 
ATOM      7  C5  UNL     1     154.729 158.008 166.965  0.00  0.00    +0.000 A 
ATOM      8  C6  UNL     1     155.657 157.440 165.984  0.00  0.00    +0.000 C 
ATOM      9  C7  UNL     1     154.531 157.412 168.182  0.00  0.00    +0.000 A 
ATOM     10  C8  UNL     1     153.647 157.948 169.127  0.00  0.00    +0.000 A 
ATOM     11  C9  UNL     1     152.955 159.117 168.809  0.00  0.00    +0.000 A 
ATOM     12  C10 UNL     1     153.163 159.707 167.581  0.00  0.00    +0.000 A 
ATOM     13  N3  UNL     1     152.667 160.807 166.984  0.00  0.00    +0.000 N 
ATOM     14  H4  UNL     1     153.385 162.018 163.901  0.00  0.00    +0.000 HD
ATOM     15  H11 UNL     1     151.971 161.419 167.460  0.00  0.00    +0.000 HD
ENDROOT
BRANCH   1  17
ATOM     16  C1  UNL     1     151.621 165.447 164.529  0.00  0.00    +0.000 C 
ATOM     17  O1  UNL     1     151.751 164.097 164.115  0.00  0.00    +0.000 OA
ENDBRANCH   1  17
TORSDOF 1
ENDMDL
MODEL 7
REMARK VINA RESULT:      -4.5      3.047      5.446
REMARK  Name = ./3D_structures\o42_MMV1782387_3D.pdb
REMARK  3 active torsions:
REMARK  status: ('A' for Active; 'I' for Inactive)
REMARK    1  A    between atoms: C1_1  and  O1_2
REMARK    2  A    between atoms: O1_2  and  C2_3
REMARK    3  A    between atoms: C5_9  and  C6_10
REMARK                            x       y       z     vdW  Elec       q    Type
REMARK                         _______ _______ _______ _____ _____    ______ ____
ROOT
ATOM      1  C2  UNL     1     150.980 165.812 165.842  0.00  0.00    +0.000 C 
ATOM      2  O2  UNL     1     151.383 165.166 166.816  0.00  0.00    +0.000 OA
ATOM      3  N1  UNL     1     149.605 165.886 165.584  0.00  0.00    +0.000 N 
ATOM      4  C3  UNL     1     148.571 165.274 166.350  0.00  0.00    +0.000 A 
ATOM      5  N2  UNL     1     147.245 165.334 166.116  0.00  0.00    +0.000 NA
ATOM      6  C4  UNL     1     146.589 164.634 167.051  0.00  0.00    +0.000 A 
ATOM      7  C5  UNL     1     145.240 164.388 167.257  0.00  0.00    +0.000 A 
ATOM      8  C6  UNL     1     144.254 164.954 166.333  0.00  0.00    +0.000 C 
ATOM      9  C7  UNL     1     144.853 163.618 168.322  0.00  0.00    +0.000 A 
ATOM     10  C8  UNL     1     145.788 163.072 169.211  0.00  0.00    +0.000 A 
ATOM     11  C9  UNL     1     147.143 163.326 168.996  0.00  0.00    +0.000 A 
ATOM     12  C10 UNL     1     147.519 164.101 167.921  0.00  0.00    +0.000 A 
ATOM     13  N3  UNL     1     148.708 164.520 167.450  0.00  0.00    +0.000 N 
ATOM     14  H4  UNL     1     149.318 166.454 164.734  0.00  0.00    +0.000 HD
ATOM     15  H11 UNL     1     149.602 164.263 167.919  0.00  0.00    +0.000 HD
ENDROOT
BRANCH   1  17
ATOM     16  C1  UNL     1     153.205 165.805 164.840  0.00  0.00    +0.000 C 
ATOM     17  O1  UNL     1     151.951 166.432 165.057  0.00  0.00    +0.000 OA
ENDBRANCH   1  17
TORSDOF 1
ENDMDL
MODEL 8
REMARK VINA RESULT:      -4.4      3.155      5.551
REMARK  Name = ./3D_structures\o42_MMV1782387_3D.pdb
REMARK  3 active torsions:
REMARK  status: ('A' for Active; 'I' for Inactive)
REMARK    1  A    between atoms: C1_1  and  O1_2
REMARK    2  A    between atoms: O1_2  and  C2_3
REMARK    3  A    between atoms: C5_9  and  C6_10
REMARK                            x       y       z     vdW  Elec       q    Type
REMARK                         _______ _______ _______ _____ _____    ______ ____
ROOT
ATOM      1  C2  UNL     1     152.197 165.440 165.239  0.00  0.00    +0.000 C 
ATOM      2  O2  UNL     1     151.741 166.362 164.553  0.00  0.00    +0.000 OA
ATOM      3  N1  UNL     1     151.351 164.748 166.114  0.00  0.00    +0.000 N 
ATOM      4  C3  UNL     1     149.962 164.996 166.314  0.00  0.00    +0.000 A 
ATOM      5  N2  UNL     1     149.133 164.341 167.151  0.00  0.00    +0.000 NA
ATOM      6  C4  UNL     1     147.900 164.857 167.063  0.00  0.00    +0.000 A 
ATOM      7  C5  UNL     1     146.710 164.545 167.702  0.00  0.00    +0.000 A 
ATOM      8  C6  UNL     1     146.682 163.457 168.684  0.00  0.00    +0.000 C 
ATOM      9  C7  UNL     1     145.581 165.260 167.405  0.00  0.00    +0.000 A 
ATOM     10  C8  UNL     1     145.597 166.302 166.468  0.00  0.00    +0.000 A 
ATOM     11  C9  UNL     1     146.799 166.608 165.829  0.00  0.00    +0.000 A 
ATOM     12  C10 UNL     1     147.928 165.882 166.138  0.00  0.00    +0.000 A 
ATOM     13  N3  UNL     1     149.204 165.924 165.713  0.00  0.00    +0.000 N 
ATOM     14  H4  UNL     1     151.798 163.967 166.678  0.00  0.00    +0.000 HD
ATOM     15  H11 UNL     1     149.519 166.615 164.999  0.00  0.00    +0.000 HD
ENDROOT
BRANCH   1  17
ATOM     16  C1  UNL     1     154.082 164.869 163.799  0.00  0.00    +0.000 C 
ATOM     17  O1  UNL     1     153.553 165.156 165.083  0.00  0.00    +0.000 OA
ENDBRANCH   1  17
TORSDOF 1
ENDMDL
MODEL 9
REMARK VINA RESULT:      -4.4      4.867      6.490
REMARK  Name = ./3D_structures\o42_MMV1782387_3D.pdb
REMARK  3 active torsions:
REMARK  status: ('A' for Active; 'I' for Inactive)
REMARK    1  A    between atoms: C1_1  and  O1_2
REMARK    2  A    between atoms: O1_2  and  C2_3
REMARK    3  A    between atoms: C5_9  and  C6_10
REMARK                            x       y       z     vdW  Elec       q    Type
REMARK                         _______ _______ _______ _____ _____    ______ ____
ROOT
ATOM      1  C2  UNL     1     146.822 158.577 166.613  0.00  0.00    +0.000 C 
ATOM      2  O2  UNL     1     146.532 158.995 165.486  0.00  0.00    +0.000 OA
ATOM      3  N1  UNL     1     146.862 159.470 167.691  0.00  0.00    +0.000 N 
ATOM      4  C3  UNL     1     146.596 160.869 167.635  0.00  0.00    +0.000 A 
ATOM      5  N2  UNL     1     146.630 161.742 168.661  0.00  0.00    +0.000 NA
ATOM      6  C4  UNL     1     146.321 162.970 168.221  0.00  0.00    +0.000 A 
ATOM      7  C5  UNL     1     146.219 164.194 168.865  0.00  0.00    +0.000 A 
ATOM      8  C6  UNL     1     146.477 164.275 170.305  0.00  0.00    +0.000 C 
ATOM      9  C7  UNL     1     145.878 165.305 168.142  0.00  0.00    +0.000 A 
ATOM     10  C8  UNL     1     145.630 165.238 166.765  0.00  0.00    +0.000 A 
ATOM     11  C9  UNL     1     145.734 164.002 166.126  0.00  0.00    +0.000 A 
ATOM     12  C10 UNL     1     146.079 162.891 166.864  0.00  0.00    +0.000 A 
ATOM     13  N3  UNL     1     146.259 161.593 166.559  0.00  0.00    +0.000 N 
ATOM     14  H4  UNL     1     147.117 159.054 168.634  0.00  0.00    +0.000 HD
ATOM     15  H11 UNL     1     146.139 161.240 165.586  0.00  0.00    +0.000 HD
ENDROOT
BRANCH   1  17
ATOM     16  C1  UNL     1     146.457 156.284 165.862  0.00  0.00    +0.000 C 
ATOM     17  O1  UNL     1     147.093 157.214 166.723  0.00  0.00    +0.000 OA
ENDBRANCH   1  17
TORSDOF 1
ENDMDL
