MODEL 1
REMARK VINA RESULT:      -4.9      0.000      0.000
REMARK  Name = ./3D_structures\o44_MMV1782388_3D.pdb
REMARK  1 active torsions:
REMARK  status: ('A' for Active; 'I' for Inactive)
REMARK    1  A    between atoms: C1_1  and  N1_2
REMARK                            x       y       z     vdW  Elec       q    Type
REMARK                         _______ _______ _______ _____ _____    ______ ____
ROOT
ATOM      1  C1  UNL     1     147.382 175.183 162.553  0.00  0.00    +0.000 C 
ATOM      2  N1  UNL     1     147.472 174.681 163.911  0.00  0.00    +0.000 N 
ATOM      3  C2  UNL     1     146.310 174.438 164.701  0.00  0.00    +0.000 A 
ATOM      4  N2  UNL     1     145.065 174.662 164.225  0.00  0.00    +0.000 NA
ATOM      5  C3  UNL     1     143.952 174.442 164.947  0.00  0.00    +0.000 A 
ATOM      6  O1  UNL     1     142.802 174.675 164.437  0.00  0.00    +0.000 OA
ATOM      7  N3  UNL     1     144.072 173.978 166.202  0.00  0.00    +0.000 N 
ATOM      8  C4  UNL     1     145.272 173.728 166.750  0.00  0.00    +0.000 A 
ATOM      9  C5  UNL     1     146.397 173.962 165.992  0.00  0.00    +0.000 A 
ATOM     10  F1  UNL     1     147.626 173.726 166.499  0.00  0.00    +0.000 F 
ATOM     11  H4  UNL     1     148.395 174.481 164.355  0.00  0.00    +0.000 HD
ATOM     12  H5  UNL     1     143.192 173.816 166.740  0.00  0.00    +0.000 HD
ENDROOT
TORSDOF 0
ENDMDL
MODEL 2
REMARK VINA RESULT:      -4.7      8.177      8.590
REMARK  Name = ./3D_structures\o44_MMV1782388_3D.pdb
REMARK  1 active torsions:
REMARK  status: ('A' for Active; 'I' for Inactive)
REMARK    1  A    between atoms: C1_1  and  N1_2
REMARK                            x       y       z     vdW  Elec       q    Type
REMARK                         _______ _______ _______ _____ _____    ______ ____
ROOT
ATOM      1  C1  UNL     1     148.950 165.893 166.263  0.00  0.00    +0.000 C 
ATOM      2  N1  UNL     1     147.758 165.104 166.017  0.00  0.00    +0.000 N 
ATOM      3  C2  UNL     1     146.477 165.707 165.851  0.00  0.00    +0.000 A 
ATOM      4  N2  UNL     1     146.307 167.047 165.914  0.00  0.00    +0.000 NA
ATOM      5  C3  UNL     1     145.111 167.644 165.762  0.00  0.00    +0.000 A 
ATOM      6  O1  UNL     1     145.019 168.918 165.832  0.00  0.00    +0.000 OA
ATOM      7  N3  UNL     1     144.028 166.882 165.536  0.00  0.00    +0.000 N 
ATOM      8  C4  UNL     1     144.111 165.544 165.458  0.00  0.00    +0.000 A 
ATOM      9  C5  UNL     1     145.345 164.956 165.618  0.00  0.00    +0.000 A 
ATOM     10  F1  UNL     1     145.478 163.614 165.549  0.00  0.00    +0.000 F 
ATOM     11  H4  UNL     1     147.801 164.063 165.954  0.00  0.00    +0.000 HD
ATOM     12  H5  UNL     1     143.113 167.371 165.421  0.00  0.00    +0.000 HD
ENDROOT
TORSDOF 0
ENDMDL
MODEL 3
REMARK VINA RESULT:      -4.1      8.959      9.356
REMARK  Name = ./3D_structures\o44_MMV1782388_3D.pdb
REMARK  1 active torsions:
REMARK  status: ('A' for Active; 'I' for Inactive)
REMARK    1  A    between atoms: C1_1  and  N1_2
REMARK                            x       y       z     vdW  Elec       q    Type
REMARK                         _______ _______ _______ _____ _____    ______ ____
ROOT
ATOM      1  C1  UNL     1     149.387 165.834 166.237  0.00  0.00    +0.000 C 
ATOM      2  N1  UNL     1     148.146 166.557 166.037  0.00  0.00    +0.000 N 
ATOM      3  C2  UNL     1     146.891 165.886 165.942  0.00  0.00    +0.000 A 
ATOM      4  N2  UNL     1     146.793 164.542 166.034  0.00  0.00    +0.000 NA
ATOM      5  C3  UNL     1     145.625 163.882 165.948  0.00  0.00    +0.000 A 
ATOM      6  O1  UNL     1     145.601 162.607 166.043  0.00  0.00    +0.000 OA
ATOM      7  N3  UNL     1     144.494 164.584 165.761  0.00  0.00    +0.000 N 
ATOM      8  C4  UNL     1     144.504 165.922 165.661  0.00  0.00    +0.000 A 
ATOM      9  C5  UNL     1     145.712 166.575 165.751  0.00  0.00    +0.000 A 
ATOM     10  F1  UNL     1     145.773 167.921 165.655  0.00  0.00    +0.000 F 
ATOM     11  H4  UNL     1     148.132 167.597 165.955  0.00  0.00    +0.000 HD
ATOM     12  H5  UNL     1     143.601 164.047 165.698  0.00  0.00    +0.000 HD
ENDROOT
TORSDOF 0
ENDMDL
MODEL 4
REMARK VINA RESULT:      -4.0      8.999      9.617
REMARK  Name = ./3D_structures\o44_MMV1782388_3D.pdb
REMARK  1 active torsions:
REMARK  status: ('A' for Active; 'I' for Inactive)
REMARK    1  A    between atoms: C1_1  and  N1_2
REMARK                            x       y       z     vdW  Elec       q    Type
REMARK                         _______ _______ _______ _____ _____    ______ ____
ROOT
ATOM      1  C1  UNL     1     144.871 162.029 166.109  0.00  0.00    +0.000 C 
ATOM      2  N1  UNL     1     145.929 163.022 166.110  0.00  0.00    +0.000 N 
ATOM      3  C2  UNL     1     145.657 164.410 165.933  0.00  0.00    +0.000 A 
ATOM      4  N2  UNL     1     144.400 164.874 165.755  0.00  0.00    +0.000 NA
ATOM      5  C3  UNL     1     144.114 166.177 165.585  0.00  0.00    +0.000 A 
ATOM      6  O1  UNL     1     142.902 166.550 165.422  0.00  0.00    +0.000 OA
ATOM      7  N3  UNL     1     145.119 167.069 165.591  0.00  0.00    +0.000 N 
ATOM      8  C4  UNL     1     146.396 166.692 165.762  0.00  0.00    +0.000 A 
ATOM      9  C5  UNL     1     146.664 165.353 165.933  0.00  0.00    +0.000 A 
ATOM     10  F1  UNL     1     147.933 164.924 166.109  0.00  0.00    +0.000 F 
ATOM     11  H4  UNL     1     146.927 162.749 166.241  0.00  0.00    +0.000 HD
ATOM     12  H5  UNL     1     144.869 168.074 165.457  0.00  0.00    +0.000 HD
ENDROOT
TORSDOF 0
ENDMDL
MODEL 5
REMARK VINA RESULT:      -3.9      9.160     10.019
REMARK  Name = ./3D_structures\o44_MMV1782388_3D.pdb
REMARK  1 active torsions:
REMARK  status: ('A' for Active; 'I' for Inactive)
REMARK    1  A    between atoms: C1_1  and  N1_2
REMARK                            x       y       z     vdW  Elec       q    Type
REMARK                         _______ _______ _______ _____ _____    ______ ____
ROOT
ATOM      1  C1  UNL     1     147.213 165.075 170.034  0.00  0.00    +0.000 C 
ATOM      2  N1  UNL     1     146.074 164.466 169.372  0.00  0.00    +0.000 N 
ATOM      3  C2  UNL     1     145.640 164.887 168.081  0.00  0.00    +0.000 A 
ATOM      4  N2  UNL     1     146.269 165.875 167.405  0.00  0.00    +0.000 NA
ATOM      5  C3  UNL     1     145.883 166.293 166.186  0.00  0.00    +0.000 A 
ATOM      6  O1  UNL     1     146.522 167.233 165.600  0.00  0.00    +0.000 OA
ATOM      7  N3  UNL     1     144.824 165.708 165.603  0.00  0.00    +0.000 N 
ATOM      8  C4  UNL     1     144.145 164.719 166.207  0.00  0.00    +0.000 A 
ATOM      9  C5  UNL     1     144.558 164.309 167.454  0.00  0.00    +0.000 A 
ATOM     10  F1  UNL     1     143.906 163.318 168.100  0.00  0.00    +0.000 F 
ATOM     11  H4  UNL     1     145.532 163.697 169.824  0.00  0.00    +0.000 HD
ATOM     12  H5  UNL     1     144.546 166.051 164.658  0.00  0.00    +0.000 HD
ENDROOT
TORSDOF 0
ENDMDL
MODEL 6
REMARK VINA RESULT:      -3.8      9.320     10.002
REMARK  Name = ./3D_structures\o44_MMV1782388_3D.pdb
REMARK  1 active torsions:
REMARK  status: ('A' for Active; 'I' for Inactive)
REMARK    1  A    between atoms: C1_1  and  N1_2
REMARK                            x       y       z     vdW  Elec       q    Type
REMARK                         _______ _______ _______ _____ _____    ______ ____
ROOT
ATOM      1  C1  UNL     1     144.370 163.191 166.840  0.00  0.00    +0.000 C 
ATOM      2  N1  UNL     1     145.817 163.191 166.939  0.00  0.00    +0.000 N 
ATOM      3  C2  UNL     1     146.594 164.342 166.614  0.00  0.00    +0.000 A 
ATOM      4  N2  UNL     1     146.021 165.493 166.198  0.00  0.00    +0.000 NA
ATOM      5  C3  UNL     1     146.728 166.594 165.884  0.00  0.00    +0.000 A 
ATOM      6  O1  UNL     1     146.124 167.653 165.497  0.00  0.00    +0.000 OA
ATOM      7  N3  UNL     1     148.067 166.558 165.987  0.00  0.00    +0.000 N 
ATOM      8  C4  UNL     1     148.713 165.454 166.394  0.00  0.00    +0.000 A 
ATOM      9  C5  UNL     1     147.969 164.340 166.708  0.00  0.00    +0.000 A 
ATOM     10  F1  UNL     1     148.574 163.205 167.121  0.00  0.00    +0.000 F 
ATOM     11  H4  UNL     1     146.338 162.343 167.252  0.00  0.00    +0.000 HD
ATOM     12  H5  UNL     1     148.590 167.426 165.738  0.00  0.00    +0.000 HD
ENDROOT
TORSDOF 0
ENDMDL
MODEL 7
REMARK VINA RESULT:      -3.8      9.845     10.037
REMARK  Name = ./3D_structures\o44_MMV1782388_3D.pdb
REMARK  1 active torsions:
REMARK  status: ('A' for Active; 'I' for Inactive)
REMARK    1  A    between atoms: C1_1  and  N1_2
REMARK                            x       y       z     vdW  Elec       q    Type
REMARK                         _______ _______ _______ _____ _____    ______ ____
ROOT
ATOM      1  C1  UNL     1     150.178 165.613 166.288  0.00  0.00    +0.000 C 
ATOM      2  N1  UNL     1     148.776 165.459 165.947  0.00  0.00    +0.000 N 
ATOM      3  C2  UNL     1     147.777 165.260 166.945  0.00  0.00    +0.000 A 
ATOM      4  N2  UNL     1     148.084 165.206 168.260  0.00  0.00    +0.000 NA
ATOM      5  C3  UNL     1     147.164 165.020 169.223  0.00  0.00    +0.000 A 
ATOM      6  O1  UNL     1     147.521 164.978 170.451  0.00  0.00    +0.000 OA
ATOM      7  N3  UNL     1     145.874 164.880 168.872  0.00  0.00    +0.000 N 
ATOM      8  C4  UNL     1     145.485 164.923 167.588  0.00  0.00    +0.000 A 
ATOM      9  C5  UNL     1     146.445 165.113 166.620  0.00  0.00    +0.000 A 
ATOM     10  F1  UNL     1     146.102 165.163 165.315  0.00  0.00    +0.000 F 
ATOM     11  H4  UNL     1     148.453 165.488 164.956  0.00  0.00    +0.000 HD
ATOM     12  H5  UNL     1     145.181 164.737 169.639  0.00  0.00    +0.000 HD
ENDROOT
TORSDOF 0
ENDMDL
MODEL 8
REMARK VINA RESULT:      -3.7     22.967     23.332
REMARK  Name = ./3D_structures\o44_MMV1782388_3D.pdb
REMARK  1 active torsions:
REMARK  status: ('A' for Active; 'I' for Inactive)
REMARK    1  A    between atoms: C1_1  and  N1_2
REMARK                            x       y       z     vdW  Elec       q    Type
REMARK                         _______ _______ _______ _____ _____    ______ ____
ROOT
ATOM      1  C1  UNL     1     145.493 151.034 169.097  0.00  0.00    +0.000 C 
ATOM      2  N1  UNL     1     146.671 151.674 169.651  0.00  0.00    +0.000 N 
ATOM      3  C2  UNL     1     147.903 151.730 168.936  0.00  0.00    +0.000 A 
ATOM      4  N2  UNL     1     148.037 151.191 167.704  0.00  0.00    +0.000 NA
ATOM      5  C3  UNL     1     149.186 151.228 167.006  0.00  0.00    +0.000 A 
ATOM      6  O1  UNL     1     149.246 150.697 165.844  0.00  0.00    +0.000 OA
ATOM      7  N3  UNL     1     150.258 151.828 167.550  0.00  0.00    +0.000 N 
ATOM      8  C4  UNL     1     150.208 152.390 168.768  0.00  0.00    +0.000 A 
ATOM      9  C5  UNL     1     149.022 152.338 169.464  0.00  0.00    +0.000 A 
ATOM     10  F1  UNL     1     148.923 152.889 170.693  0.00  0.00    +0.000 F 
ATOM     11  H4  UNL     1     146.654 152.115 170.597  0.00  0.00    +0.000 HD
ATOM     12  H5  UNL     1     151.137 151.843 166.987  0.00  0.00    +0.000 HD
ENDROOT
TORSDOF 0
ENDMDL
MODEL 9
REMARK VINA RESULT:      -3.7      9.146      9.931
REMARK  Name = ./3D_structures\o44_MMV1782388_3D.pdb
REMARK  1 active torsions:
REMARK  status: ('A' for Active; 'I' for Inactive)
REMARK    1  A    between atoms: C1_1  and  N1_2
REMARK                            x       y       z     vdW  Elec       q    Type
REMARK                         _______ _______ _______ _____ _____    ______ ____
ROOT
ATOM      1  C1  UNL     1     142.790 163.806 166.262  0.00  0.00    +0.000 C 
ATOM      2  N1  UNL     1     143.401 165.082 165.943  0.00  0.00    +0.000 N 
ATOM      3  C2  UNL     1     144.814 165.273 165.995  0.00  0.00    +0.000 A 
ATOM      4  N2  UNL     1     145.655 164.275 166.345  0.00  0.00    +0.000 NA
ATOM      5  C3  UNL     1     146.991 164.427 166.403  0.00  0.00    +0.000 A 
ATOM      6  O1  UNL     1     147.732 163.441 166.741  0.00  0.00    +0.000 OA
ATOM      7  N3  UNL     1     147.523 165.623 166.101  0.00  0.00    +0.000 N 
ATOM      8  C4  UNL     1     146.757 166.665 165.744  0.00  0.00    +0.000 A 
ATOM      9  C5  UNL     1     145.393 166.487 165.692  0.00  0.00    +0.000 A 
ATOM     10  F1  UNL     1     144.581 167.506 165.338  0.00  0.00    +0.000 F 
ATOM     11  H4  UNL     1     142.824 165.905 165.663  0.00  0.00    +0.000 HD
ATOM     12  H5  UNL     1     148.562 165.712 166.154  0.00  0.00    +0.000 HD
ENDROOT
TORSDOF 0
ENDMDL
