MODEL 1
REMARK VINA RESULT:      -8.0      0.000      0.000
REMARK  Name = ./3D_structures\o45_MMV1634557_3D.pdb
REMARK  9 active torsions:
REMARK  status: ('A' for Active; 'I' for Inactive)
REMARK    1  A    between atoms: C6_9  and  C7_10
REMARK    2  A    between atoms: C9_12  and  O3_24
REMARK    3  A    between atoms: C10_13  and  O2_14
REMARK    4  A    between atoms: O2_14  and  C11_15
REMARK    5  A    between atoms: C11_15  and  C12_16
REMARK    6  A    between atoms: O3_24  and  C20_25
REMARK    7  A    between atoms: C21_26  and  C22_28
REMARK    8  A    between atoms: C28_34  and  C30_36
REMARK    9  A    between atoms: C28_34  and  C31_37
REMARK                            x       y       z     vdW  Elec       q    Type
REMARK                         _______ _______ _______ _____ _____    ______ ____
ROOT
ATOM      1  O1  UNL     1     150.886 164.055 167.025  0.00  0.00    +0.000 OA
ATOM      2  C1  UNL     1     151.950 163.619 166.576  0.00  0.00    +0.000 C 
ATOM      3  C2  UNL     1     152.309 162.208 166.920  0.00  0.00    +0.000 C 
ATOM      4  C3  UNL     1     152.832 161.469 165.962  0.00  0.00    +0.000 C 
ATOM      5  N1  UNL     1     153.292 160.128 165.894  0.00  0.00    +0.000 N 
ATOM      6  C4  UNL     1     153.569 159.327 167.069  0.00  0.00    +0.000 A 
ATOM      7  C5  UNL     1     153.022 159.538 168.321  0.00  0.00    +0.000 A 
ATOM      8  N2  UNL     1     152.069 160.507 168.725  0.00  0.00    +0.000 N 
ATOM      9  C6  UNL     1     151.983 161.888 168.312  0.00  0.00    +0.000 C 
ATOM     10  C21 UNL     1     151.046 160.023 169.628  0.00  0.00    +0.000 C 
ATOM     11  O4  UNL     1     150.374 160.820 170.342  0.00  0.00    +0.000 OA
ATOM     12  C22 UNL     1     150.699 158.605 169.781  0.00  0.00    +0.000 C 
ATOM     13  C23 UNL     1     153.400 158.717 169.396  0.00  0.00    +0.000 A 
ATOM     14  C24 UNL     1     154.310 157.722 169.147  0.00  0.00    +0.000 A 
ATOM     15  C25 UNL     1     154.847 157.520 167.894  0.00  0.00    +0.000 A 
ATOM     16  C26 UNL     1     154.471 158.332 166.845  0.00  0.00    +0.000 A 
ATOM     17  C27 UNL     1     152.992 162.145 164.611  0.00  0.00    +0.000 C 
ATOM     18  C28 UNL     1     153.636 163.495 164.773  0.00  0.00    +0.000 C 
ATOM     19  C29 UNL     1     152.890 164.372 165.733  0.00  0.00    +0.000 C 
ATOM     20  C30 UNL     1     153.615 164.166 163.416  0.00  0.00    +0.000 C 
ATOM     21  C31 UNL     1     155.077 163.275 165.157  0.00  0.00    +0.000 C 
ATOM     22  H1  UNL     1     153.451 159.680 164.988  0.00  0.00    +0.000 HD
ENDROOT
BRANCH   9  23
ATOM     23  C7  UNL     1     150.660 162.445 168.707  0.00  0.00    +0.000 A 
ATOM     24  C8  UNL     1     150.537 163.406 169.661  0.00  0.00    +0.000 A 
ATOM     25  C9  UNL     1     149.292 163.938 169.994  0.00  0.00    +0.000 A 
ATOM     26  C10 UNL     1     148.150 163.476 169.336  0.00  0.00    +0.000 A 
ATOM     27  C18 UNL     1     148.308 162.502 168.375  0.00  0.00    +0.000 A 
ATOM     28  C19 UNL     1     149.563 161.975 168.049  0.00  0.00    +0.000 A 
BRANCH  25  29
ATOM     29  O3  UNL     1     149.150 164.907 170.952  0.00  0.00    +0.000 OA
ATOM     30  C20 UNL     1     149.611 166.230 170.800  0.00  0.00    +0.000 C 
ENDBRANCH  25  29
BRANCH  26  31
ATOM     31  O2  UNL     1     146.892 163.982 169.641  0.00  0.00    +0.000 OA
BRANCH  31  32
ATOM     32  C11 UNL     1     146.387 165.035 168.863  0.00  0.00    +0.000 C 
BRANCH  32  33
ATOM     33  C12 UNL     1     145.343 164.628 167.915  0.00  0.00    +0.000 A 
ATOM     34  C13 UNL     1     144.536 163.544 168.186  0.00  0.00    +0.000 A 
ATOM     35  C14 UNL     1     143.542 163.132 167.314  0.00  0.00    +0.000 A 
ATOM     36  C15 UNL     1     143.341 163.805 166.144  0.00  0.00    +0.000 A 
ATOM     37  C16 UNL     1     144.147 164.905 165.852  0.00  0.00    +0.000 A 
ATOM     38  C17 UNL     1     145.129 165.299 166.733  0.00  0.00    +0.000 A 
ENDBRANCH  32  33
ENDBRANCH  31  32
ENDBRANCH  26  31
ENDBRANCH   9  23
TORSDOF 5
ENDMDL
MODEL 2
REMARK VINA RESULT:      -7.6      1.105      2.143
REMARK  Name = ./3D_structures\o45_MMV1634557_3D.pdb
REMARK  9 active torsions:
REMARK  status: ('A' for Active; 'I' for Inactive)
REMARK    1  A    between atoms: C6_9  and  C7_10
REMARK    2  A    between atoms: C9_12  and  O3_24
REMARK    3  A    between atoms: C10_13  and  O2_14
REMARK    4  A    between atoms: O2_14  and  C11_15
REMARK    5  A    between atoms: C11_15  and  C12_16
REMARK    6  A    between atoms: O3_24  and  C20_25
REMARK    7  A    between atoms: C21_26  and  C22_28
REMARK    8  A    between atoms: C28_34  and  C30_36
REMARK    9  A    between atoms: C28_34  and  C31_37
REMARK                            x       y       z     vdW  Elec       q    Type
REMARK                         _______ _______ _______ _____ _____    ______ ____
ROOT
ATOM      1  O1  UNL     1     150.628 163.498 166.637  0.00  0.00    +0.000 OA
ATOM      2  C1  UNL     1     151.776 163.157 166.337  0.00  0.00    +0.000 C 
ATOM      3  C2  UNL     1     152.239 161.818 166.815  0.00  0.00    +0.000 C 
ATOM      4  C3  UNL     1     152.942 161.087 165.972  0.00  0.00    +0.000 C 
ATOM      5  N1  UNL     1     153.543 159.804 166.048  0.00  0.00    +0.000 N 
ATOM      6  C4  UNL     1     153.766 159.107 167.299  0.00  0.00    +0.000 A 
ATOM      7  C5  UNL     1     153.060 159.328 168.467  0.00  0.00    +0.000 A 
ATOM      8  N2  UNL     1     151.971 160.206 168.697  0.00  0.00    +0.000 N 
ATOM      9  C6  UNL     1     151.790 161.544 168.182  0.00  0.00    +0.000 C 
ATOM     10  C21 UNL     1     150.908 159.665 169.516  0.00  0.00    +0.000 C 
ATOM     11  O4  UNL     1     150.079 160.422 170.097  0.00  0.00    +0.000 OA
ATOM     12  C22 UNL     1     150.694 158.228 169.729  0.00  0.00    +0.000 C 
ATOM     13  C23 UNL     1     153.396 158.617 169.630  0.00  0.00    +0.000 A 
ATOM     14  C24 UNL     1     154.427 157.716 169.551  0.00  0.00    +0.000 A 
ATOM     15  C25 UNL     1     155.122 157.504 168.379  0.00  0.00    +0.000 A 
ATOM     16  C26 UNL     1     154.786 158.208 167.242  0.00  0.00    +0.000 A 
ATOM     17  C27 UNL     1     153.184 161.698 164.603  0.00  0.00    +0.000 C 
ATOM     18  C28 UNL     1     153.661 163.118 164.739  0.00  0.00    +0.000 C 
ATOM     19  C29 UNL     1     152.723 163.961 165.550  0.00  0.00    +0.000 C 
ATOM     20  C30 UNL     1     153.726 163.704 163.345  0.00  0.00    +0.000 C 
ATOM     21  C31 UNL     1     155.064 163.082 165.290  0.00  0.00    +0.000 C 
ATOM     22  H1  UNL     1     153.850 159.325 165.197  0.00  0.00    +0.000 HD
ENDROOT
BRANCH   9  23
ATOM     23  C7  UNL     1     150.380 161.972 168.393  0.00  0.00    +0.000 A 
ATOM     24  C8  UNL     1     149.347 161.420 167.702  0.00  0.00    +0.000 A 
ATOM     25  C9  UNL     1     148.029 161.812 167.938  0.00  0.00    +0.000 A 
ATOM     26  C10 UNL     1     147.766 162.788 168.901  0.00  0.00    +0.000 A 
ATOM     27  C18 UNL     1     148.834 163.327 169.584  0.00  0.00    +0.000 A 
ATOM     28  C19 UNL     1     150.152 162.926 169.339  0.00  0.00    +0.000 A 
BRANCH  25  29
ATOM     29  O3  UNL     1     146.977 161.267 167.251  0.00  0.00    +0.000 OA
ATOM     30  C20 UNL     1     146.435 159.996 167.530  0.00  0.00    +0.000 C 
ENDBRANCH  25  29
BRANCH  26  31
ATOM     31  O2  UNL     1     146.465 163.205 169.163  0.00  0.00    +0.000 OA
BRANCH  31  32
ATOM     32  C11 UNL     1     146.183 164.579 169.131  0.00  0.00    +0.000 C 
BRANCH  32  33
ATOM     33  C12 UNL     1     145.932 165.105 167.785  0.00  0.00    +0.000 A 
ATOM     34  C13 UNL     1     146.855 165.926 167.171  0.00  0.00    +0.000 A 
ATOM     35  C14 UNL     1     146.650 166.441 165.902  0.00  0.00    +0.000 A 
ATOM     36  C15 UNL     1     145.506 166.141 165.222  0.00  0.00    +0.000 A 
ATOM     37  C16 UNL     1     144.560 165.312 165.825  0.00  0.00    +0.000 A 
ATOM     38  C17 UNL     1     144.783 164.809 167.087  0.00  0.00    +0.000 A 
ENDBRANCH  32  33
ENDBRANCH  31  32
ENDBRANCH  26  31
ENDBRANCH   9  23
TORSDOF 5
ENDMDL
MODEL 3
REMARK VINA RESULT:      -7.5      1.200      4.221
REMARK  Name = ./3D_structures\o45_MMV1634557_3D.pdb
REMARK  9 active torsions:
REMARK  status: ('A' for Active; 'I' for Inactive)
REMARK    1  A    between atoms: C6_9  and  C7_10
REMARK    2  A    between atoms: C9_12  and  O3_24
REMARK    3  A    between atoms: C10_13  and  O2_14
REMARK    4  A    between atoms: O2_14  and  C11_15
REMARK    5  A    between atoms: C11_15  and  C12_16
REMARK    6  A    between atoms: O3_24  and  C20_25
REMARK    7  A    between atoms: C21_26  and  C22_28
REMARK    8  A    between atoms: C28_34  and  C30_36
REMARK    9  A    between atoms: C28_34  and  C31_37
REMARK                            x       y       z     vdW  Elec       q    Type
REMARK                         _______ _______ _______ _____ _____    ______ ____
ROOT
ATOM      1  O1  UNL     1     150.715 160.720 169.362  0.00  0.00    +0.000 OA
ATOM      2  C1  UNL     1     151.726 160.352 168.758  0.00  0.00    +0.000 C 
ATOM      3  C2  UNL     1     152.322 161.310 167.776  0.00  0.00    +0.000 C 
ATOM      4  C3  UNL     1     153.636 161.407 167.750  0.00  0.00    +0.000 C 
ATOM      5  N1  UNL     1     154.551 162.177 166.984  0.00  0.00    +0.000 N 
ATOM      6  C4  UNL     1     154.181 162.855 165.759  0.00  0.00    +0.000 A 
ATOM      7  C5  UNL     1     152.897 163.240 165.420  0.00  0.00    +0.000 A 
ATOM      8  N2  UNL     1     151.703 163.116 166.174  0.00  0.00    +0.000 N 
ATOM      9  C6  UNL     1     151.291 162.006 167.003  0.00  0.00    +0.000 C 
ATOM     10  C21 UNL     1     150.823 164.264 166.124  0.00  0.00    +0.000 C 
ATOM     11  O4  UNL     1     149.600 164.165 166.426  0.00  0.00    +0.000 OA
ATOM     12  C22 UNL     1     151.263 165.612 165.741  0.00  0.00    +0.000 C 
ATOM     13  C23 UNL     1     152.656 163.855 164.182  0.00  0.00    +0.000 A 
ATOM     14  C24 UNL     1     153.728 164.054 163.350  0.00  0.00    +0.000 A 
ATOM     15  C25 UNL     1     155.004 163.667 163.700  0.00  0.00    +0.000 A 
ATOM     16  C26 UNL     1     155.231 163.062 164.918  0.00  0.00    +0.000 A 
ATOM     17  C27 UNL     1     154.388 160.537 168.743  0.00  0.00    +0.000 C 
ATOM     18  C28 UNL     1     153.871 159.125 168.698  0.00  0.00    +0.000 C 
ATOM     19  C29 UNL     1     152.391 159.051 168.926  0.00  0.00    +0.000 C 
ATOM     20  C30 UNL     1     154.553 158.365 169.816  0.00  0.00    +0.000 C 
ATOM     21  C31 UNL     1     154.309 158.515 167.391  0.00  0.00    +0.000 C 
ATOM     22  H1  UNL     1     155.525 162.271 167.282  0.00  0.00    +0.000 HD
ENDROOT
BRANCH   9  23
ATOM     23  C7  UNL     1     150.149 162.423 167.862  0.00  0.00    +0.000 A 
ATOM     24  C8  UNL     1     150.298 163.313 168.879  0.00  0.00    +0.000 A 
ATOM     25  C9  UNL     1     149.209 163.716 169.652  0.00  0.00    +0.000 A 
ATOM     26  C10 UNL     1     147.943 163.196 169.376  0.00  0.00    +0.000 A 
ATOM     27  C18 UNL     1     147.825 162.297 168.339  0.00  0.00    +0.000 A 
ATOM     28  C19 UNL     1     148.925 161.900 167.570  0.00  0.00    +0.000 A 
BRANCH  25  29
ATOM     29  O3  UNL     1     149.341 164.611 170.680  0.00  0.00    +0.000 OA
ATOM     30  C20 UNL     1     149.684 165.966 170.499  0.00  0.00    +0.000 C 
ENDBRANCH  25  29
BRANCH  26  31
ATOM     31  O2  UNL     1     146.834 163.574 170.125  0.00  0.00    +0.000 OA
BRANCH  31  32
ATOM     32  C11 UNL     1     146.129 164.726 169.743  0.00  0.00    +0.000 C 
BRANCH  32  33
ATOM     33  C12 UNL     1     145.524 164.640 168.409  0.00  0.00    +0.000 A 
ATOM     34  C13 UNL     1     145.926 165.493 167.403  0.00  0.00    +0.000 A 
ATOM     35  C14 UNL     1     145.377 165.441 166.133  0.00  0.00    +0.000 A 
ATOM     36  C15 UNL     1     144.405 164.527 165.848  0.00  0.00    +0.000 A 
ATOM     37  C16 UNL     1     143.984 163.655 166.853  0.00  0.00    +0.000 A 
ATOM     38  C17 UNL     1     144.544 163.722 168.108  0.00  0.00    +0.000 A 
ENDBRANCH  32  33
ENDBRANCH  31  32
ENDBRANCH  26  31
ENDBRANCH   9  23
TORSDOF 5
ENDMDL
MODEL 4
REMARK VINA RESULT:      -7.4     20.034     23.861
REMARK  Name = ./3D_structures\o45_MMV1634557_3D.pdb
REMARK  9 active torsions:
REMARK  status: ('A' for Active; 'I' for Inactive)
REMARK    1  A    between atoms: C6_9  and  C7_10
REMARK    2  A    between atoms: C9_12  and  O3_24
REMARK    3  A    between atoms: C10_13  and  O2_14
REMARK    4  A    between atoms: O2_14  and  C11_15
REMARK    5  A    between atoms: C11_15  and  C12_16
REMARK    6  A    between atoms: O3_24  and  C20_25
REMARK    7  A    between atoms: C21_26  and  C22_28
REMARK    8  A    between atoms: C28_34  and  C30_36
REMARK    9  A    between atoms: C28_34  and  C31_37
REMARK                            x       y       z     vdW  Elec       q    Type
REMARK                         _______ _______ _______ _____ _____    ______ ____
ROOT
ATOM      1  O1  UNL     1     164.508 143.173 168.115  0.00  0.00    +0.000 OA
ATOM      2  C1  UNL     1     165.336 142.437 167.571  0.00  0.00    +0.000 C 
ATOM      3  C2  UNL     1     164.983 141.886 166.227  0.00  0.00    +0.000 C 
ATOM      4  C3  UNL     1     165.938 141.854 165.319  0.00  0.00    +0.000 C 
ATOM      5  N1  UNL     1     165.997 141.418 163.969  0.00  0.00    +0.000 N 
ATOM      6  C4  UNL     1     164.989 140.568 163.368  0.00  0.00    +0.000 A 
ATOM      7  C5  UNL     1     163.683 140.452 163.806  0.00  0.00    +0.000 A 
ATOM      8  N2  UNL     1     163.035 141.140 164.863  0.00  0.00    +0.000 N 
ATOM      9  C6  UNL     1     163.576 141.484 166.157  0.00  0.00    +0.000 C 
ATOM     10  C21 UNL     1     161.684 141.574 164.576  0.00  0.00    +0.000 C 
ATOM     11  O4  UNL     1     160.876 141.858 165.505  0.00  0.00    +0.000 OA
ATOM     12  C22 UNL     1     161.151 141.733 163.217  0.00  0.00    +0.000 C 
ATOM     13  C23 UNL     1     162.808 139.562 163.164  0.00  0.00    +0.000 A 
ATOM     14  C24 UNL     1     163.297 138.837 162.109  0.00  0.00    +0.000 A 
ATOM     15  C25 UNL     1     164.602 138.962 161.681  0.00  0.00    +0.000 A 
ATOM     16  C26 UNL     1     165.455 139.838 162.318  0.00  0.00    +0.000 A 
ATOM     17  C27 UNL     1     167.287 142.400 165.752  0.00  0.00    +0.000 C 
ATOM     18  C28 UNL     1     167.681 141.826 167.085  0.00  0.00    +0.000 C 
ATOM     19  C29 UNL     1     166.640 142.060 168.138  0.00  0.00    +0.000 C 
ATOM     20  C30 UNL     1     168.948 142.533 167.519  0.00  0.00    +0.000 C 
ATOM     21  C31 UNL     1     168.013 140.370 166.881  0.00  0.00    +0.000 C 
ATOM     22  H1  UNL     1     166.779 141.693 163.370  0.00  0.00    +0.000 HD
ENDROOT
BRANCH   9  23
ATOM     23  C7  UNL     1     162.688 142.478 166.820  0.00  0.00    +0.000 A 
ATOM     24  C8  UNL     1     162.557 143.750 166.359  0.00  0.00    +0.000 A 
ATOM     25  C9  UNL     1     161.694 144.657 166.974  0.00  0.00    +0.000 A 
ATOM     26  C10 UNL     1     160.952 144.251 168.085  0.00  0.00    +0.000 A 
ATOM     27  C18 UNL     1     161.106 142.956 168.528  0.00  0.00    +0.000 A 
ATOM     28  C19 UNL     1     161.975 142.055 167.902  0.00  0.00    +0.000 A 
BRANCH  25  29
ATOM     29  O3  UNL     1     161.550 145.942 166.522  0.00  0.00    +0.000 OA
ATOM     30  C20 UNL     1     162.447 146.984 166.829  0.00  0.00    +0.000 C 
ENDBRANCH  25  29
BRANCH  26  31
ATOM     31  O2  UNL     1     160.082 145.127 168.726  0.00  0.00    +0.000 OA
BRANCH  31  32
ATOM     32  C11 UNL     1     159.704 144.848 170.048  0.00  0.00    +0.000 C 
BRANCH  32  33
ATOM     33  C12 UNL     1     160.591 145.434 171.059  0.00  0.00    +0.000 A 
ATOM     34  C13 UNL     1     160.871 144.751 172.224  0.00  0.00    +0.000 A 
ATOM     35  C14 UNL     1     161.703 145.274 173.199  0.00  0.00    +0.000 A 
ATOM     36  C15 UNL     1     162.272 146.501 173.023  0.00  0.00    +0.000 A 
ATOM     37  C16 UNL     1     162.002 147.208 171.850  0.00  0.00    +0.000 A 
ATOM     38  C17 UNL     1     161.173 146.670 170.892  0.00  0.00    +0.000 A 
ENDBRANCH  32  33
ENDBRANCH  31  32
ENDBRANCH  26  31
ENDBRANCH   9  23
TORSDOF 5
ENDMDL
MODEL 5
REMARK VINA RESULT:      -7.3      3.341      8.813
REMARK  Name = ./3D_structures\o45_MMV1634557_3D.pdb
REMARK  9 active torsions:
REMARK  status: ('A' for Active; 'I' for Inactive)
REMARK    1  A    between atoms: C6_9  and  C7_10
REMARK    2  A    between atoms: C9_12  and  O3_24
REMARK    3  A    between atoms: C10_13  and  O2_14
REMARK    4  A    between atoms: O2_14  and  C11_15
REMARK    5  A    between atoms: C11_15  and  C12_16
REMARK    6  A    between atoms: O3_24  and  C20_25
REMARK    7  A    between atoms: C21_26  and  C22_28
REMARK    8  A    between atoms: C28_34  and  C30_36
REMARK    9  A    between atoms: C28_34  and  C31_37
REMARK                            x       y       z     vdW  Elec       q    Type
REMARK                         _______ _______ _______ _____ _____    ______ ____
ROOT
ATOM      1  O1  UNL     1     155.406 160.982 166.320  0.00  0.00    +0.000 OA
ATOM      2  C1  UNL     1     154.590 161.736 165.782  0.00  0.00    +0.000 C 
ATOM      3  C2  UNL     1     153.269 161.910 166.460  0.00  0.00    +0.000 C 
ATOM      4  C3  UNL     1     152.766 163.128 166.497  0.00  0.00    +0.000 C 
ATOM      5  N1  UNL     1     151.573 163.683 167.030  0.00  0.00    +0.000 N 
ATOM      6  C4  UNL     1     150.431 162.881 167.418  0.00  0.00    +0.000 A 
ATOM      7  C5  UNL     1     150.481 161.543 167.763  0.00  0.00    +0.000 A 
ATOM      8  N2  UNL     1     151.610 160.692 167.865  0.00  0.00    +0.000 N 
ATOM      9  C6  UNL     1     152.764 160.644 166.997  0.00  0.00    +0.000 C 
ATOM     10  C21 UNL     1     151.605 159.798 169.004  0.00  0.00    +0.000 C 
ATOM     11  O4  UNL     1     152.328 158.762 169.027  0.00  0.00    +0.000 OA
ATOM     12  C22 UNL     1     150.791 160.016 170.207  0.00  0.00    +0.000 C 
ATOM     13  C23 UNL     1     149.297 160.860 168.082  0.00  0.00    +0.000 A 
ATOM     14  C24 UNL     1     148.123 161.566 168.039  0.00  0.00    +0.000 A 
ATOM     15  C25 UNL     1     148.086 162.900 167.694  0.00  0.00    +0.000 A 
ATOM     16  C26 UNL     1     149.254 163.563 167.381  0.00  0.00    +0.000 A 
ATOM     17  C27 UNL     1     153.608 164.216 165.853  0.00  0.00    +0.000 C 
ATOM     18  C28 UNL     1     154.075 163.780 164.491  0.00  0.00    +0.000 C 
ATOM     19  C29 UNL     1     154.813 162.476 164.530  0.00  0.00    +0.000 C 
ATOM     20  C30 UNL     1     155.029 164.841 163.985  0.00  0.00    +0.000 C 
ATOM     21  C31 UNL     1     152.877 163.764 163.576  0.00  0.00    +0.000 C 
ATOM     22  H1  UNL     1     151.483 164.695 167.152  0.00  0.00    +0.000 HD
ENDROOT
BRANCH   9  23
ATOM     23  C7  UNL     1     153.845 159.854 167.647  0.00  0.00    +0.000 A 
ATOM     24  C8  UNL     1     154.277 158.668 167.141  0.00  0.00    +0.000 A 
ATOM     25  C9  UNL     1     155.314 157.959 167.747  0.00  0.00    +0.000 A 
ATOM     26  C10 UNL     1     155.919 158.475 168.895  0.00  0.00    +0.000 A 
ATOM     27  C18 UNL     1     155.458 159.678 169.383  0.00  0.00    +0.000 A 
ATOM     28  C19 UNL     1     154.417 160.381 168.766  0.00  0.00    +0.000 A 
BRANCH  25  29
ATOM     29  O3  UNL     1     155.762 156.764 167.250  0.00  0.00    +0.000 OA
ATOM     30  C20 UNL     1     156.552 156.646 166.089  0.00  0.00    +0.000 C 
ENDBRANCH  25  29
BRANCH  26  31
ATOM     31  O2  UNL     1     156.955 157.796 169.527  0.00  0.00    +0.000 OA
BRANCH  31  32
ATOM     32  C11 UNL     1     157.950 158.546 170.173  0.00  0.00    +0.000 C 
BRANCH  32  33
ATOM     33  C12 UNL     1     158.945 159.125 169.265  0.00  0.00    +0.000 A 
ATOM     34  C13 UNL     1     159.203 160.480 169.282  0.00  0.00    +0.000 A 
ATOM     35  C14 UNL     1     160.135 161.060 168.438  0.00  0.00    +0.000 A 
ATOM     36  C15 UNL     1     160.830 160.286 167.555  0.00  0.00    +0.000 A 
ATOM     37  C16 UNL     1     160.583 158.913 167.522  0.00  0.00    +0.000 A 
ATOM     38  C17 UNL     1     159.653 158.355 168.370  0.00  0.00    +0.000 A 
ENDBRANCH  32  33
ENDBRANCH  31  32
ENDBRANCH  26  31
ENDBRANCH   9  23
TORSDOF 5
ENDMDL
MODEL 6
REMARK VINA RESULT:      -7.2     17.719     21.405
REMARK  Name = ./3D_structures\o45_MMV1634557_3D.pdb
REMARK  9 active torsions:
REMARK  status: ('A' for Active; 'I' for Inactive)
REMARK    1  A    between atoms: C6_9  and  C7_10
REMARK    2  A    between atoms: C9_12  and  O3_24
REMARK    3  A    between atoms: C10_13  and  O2_14
REMARK    4  A    between atoms: O2_14  and  C11_15
REMARK    5  A    between atoms: C11_15  and  C12_16
REMARK    6  A    between atoms: O3_24  and  C20_25
REMARK    7  A    between atoms: C21_26  and  C22_28
REMARK    8  A    between atoms: C28_34  and  C30_36
REMARK    9  A    between atoms: C28_34  and  C31_37
REMARK                            x       y       z     vdW  Elec       q    Type
REMARK                         _______ _______ _______ _____ _____    ______ ____
ROOT
ATOM      1  O1  UNL     1     162.835 147.922 169.495  0.00  0.00    +0.000 OA
ATOM      2  C1  UNL     1     162.449 146.967 170.175  0.00  0.00    +0.000 C 
ATOM      3  C2  UNL     1     162.582 145.603 169.576  0.00  0.00    +0.000 C 
ATOM      4  C3  UNL     1     162.989 144.633 170.370  0.00  0.00    +0.000 C 
ATOM      5  N1  UNL     1     163.231 143.247 170.185  0.00  0.00    +0.000 N 
ATOM      6  C4  UNL     1     162.745 142.505 169.039  0.00  0.00    +0.000 A 
ATOM      7  C5  UNL     1     162.421 143.058 167.814  0.00  0.00    +0.000 A 
ATOM      8  N2  UNL     1     162.529 144.407 167.390  0.00  0.00    +0.000 N 
ATOM      9  C6  UNL     1     162.239 145.600 168.151  0.00  0.00    +0.000 C 
ATOM     10  C21 UNL     1     163.028 144.589 166.043  0.00  0.00    +0.000 C 
ATOM     11  O4  UNL     1     162.836 145.668 165.415  0.00  0.00    +0.000 OA
ATOM     12  C22 UNL     1     163.794 143.571 165.313  0.00  0.00    +0.000 C 
ATOM     13  C23 UNL     1     161.920 142.241 166.789  0.00  0.00    +0.000 A 
ATOM     14  C24 UNL     1     161.775 140.903 167.055  0.00  0.00    +0.000 A 
ATOM     15  C25 UNL     1     162.103 140.363 168.280  0.00  0.00    +0.000 A 
ATOM     16  C26 UNL     1     162.594 141.175 169.281  0.00  0.00    +0.000 A 
ATOM     17  C27 UNL     1     163.289 145.030 171.805  0.00  0.00    +0.000 C 
ATOM     18  C28 UNL     1     162.167 145.859 172.366  0.00  0.00    +0.000 C 
ATOM     19  C29 UNL     1     161.869 147.062 171.523  0.00  0.00    +0.000 C 
ATOM     20  C30 UNL     1     162.608 146.344 173.730  0.00  0.00    +0.000 C 
ATOM     21  C31 UNL     1     160.978 144.953 172.560  0.00  0.00    +0.000 C 
ATOM     22  H1  UNL     1     163.765 142.717 170.879  0.00  0.00    +0.000 HD
ENDROOT
BRANCH   9  23
ATOM     23  C7  UNL     1     162.798 146.787 167.449  0.00  0.00    +0.000 A 
ATOM     24  C8  UNL     1     162.002 147.712 166.848  0.00  0.00    +0.000 A 
ATOM     25  C9  UNL     1     162.544 148.835 166.224  0.00  0.00    +0.000 A 
ATOM     26  C10 UNL     1     163.929 149.014 166.216  0.00  0.00    +0.000 A 
ATOM     27  C18 UNL     1     164.707 148.060 166.833  0.00  0.00    +0.000 A 
ATOM     28  C19 UNL     1     164.152 146.936 167.457  0.00  0.00    +0.000 A 
BRANCH  25  29
ATOM     29  O3  UNL     1     161.757 149.776 165.614  0.00  0.00    +0.000 OA
ATOM     30  C20 UNL     1     160.875 149.490 164.554  0.00  0.00    +0.000 C 
ENDBRANCH  25  29
BRANCH  26  31
ATOM     31  O2  UNL     1     164.505 150.121 165.603  0.00  0.00    +0.000 OA
BRANCH  31  32
ATOM     32  C11 UNL     1     164.655 151.298 166.352  0.00  0.00    +0.000 C 
BRANCH  32  33
ATOM     33  C12 UNL     1     166.047 151.619 166.688  0.00  0.00    +0.000 A 
ATOM     34  C13 UNL     1     166.584 151.224 167.895  0.00  0.00    +0.000 A 
ATOM     35  C14 UNL     1     167.892 151.510 168.245  0.00  0.00    +0.000 A 
ATOM     36  C15 UNL     1     168.692 152.204 167.385  0.00  0.00    +0.000 A 
ATOM     37  C16 UNL     1     168.167 152.612 166.158  0.00  0.00    +0.000 A 
ATOM     38  C17 UNL     1     166.864 152.317 165.828  0.00  0.00    +0.000 A 
ENDBRANCH  32  33
ENDBRANCH  31  32
ENDBRANCH  26  31
ENDBRANCH   9  23
TORSDOF 5
ENDMDL
MODEL 7
REMARK VINA RESULT:      -7.2      2.604      8.496
REMARK  Name = ./3D_structures\o45_MMV1634557_3D.pdb
REMARK  9 active torsions:
REMARK  status: ('A' for Active; 'I' for Inactive)
REMARK    1  A    between atoms: C6_9  and  C7_10
REMARK    2  A    between atoms: C9_12  and  O3_24
REMARK    3  A    between atoms: C10_13  and  O2_14
REMARK    4  A    between atoms: O2_14  and  C11_15
REMARK    5  A    between atoms: C11_15  and  C12_16
REMARK    6  A    between atoms: O3_24  and  C20_25
REMARK    7  A    between atoms: C21_26  and  C22_28
REMARK    8  A    between atoms: C28_34  and  C30_36
REMARK    9  A    between atoms: C28_34  and  C31_37
REMARK                            x       y       z     vdW  Elec       q    Type
REMARK                         _______ _______ _______ _____ _____    ______ ____
ROOT
ATOM      1  O1  UNL     1     152.322 163.009 170.138  0.00  0.00    +0.000 OA
ATOM      2  C1  UNL     1     151.683 164.062 170.047  0.00  0.00    +0.000 C 
ATOM      3  C2  UNL     1     150.257 163.961 169.608  0.00  0.00    +0.000 C 
ATOM      4  C3  UNL     1     149.381 164.726 170.227  0.00  0.00    +0.000 C 
ATOM      5  N1  UNL     1     147.979 164.915 170.104  0.00  0.00    +0.000 N 
ATOM      6  C4  UNL     1     147.220 164.466 168.954  0.00  0.00    +0.000 A 
ATOM      7  C5  UNL     1     147.599 163.449 168.099  0.00  0.00    +0.000 A 
ATOM      8  N2  UNL     1     148.740 162.609 168.165  0.00  0.00    +0.000 N 
ATOM      9  C6  UNL     1     150.087 162.974 168.538  0.00  0.00    +0.000 C 
ATOM     10  C21 UNL     1     148.495 161.216 167.856  0.00  0.00    +0.000 C 
ATOM     11  O4  UNL     1     149.439 160.445 167.521  0.00  0.00    +0.000 OA
ATOM     12  C22 UNL     1     147.169 160.589 167.917  0.00  0.00    +0.000 C 
ATOM     13  C23 UNL     1     146.797 163.132 166.992  0.00  0.00    +0.000 A 
ATOM     14  C24 UNL     1     145.648 163.857 166.809  0.00  0.00    +0.000 A 
ATOM     15  C25 UNL     1     145.279 164.868 167.670  0.00  0.00    +0.000 A 
ATOM     16  C26 UNL     1     146.074 165.174 168.754  0.00  0.00    +0.000 A 
ATOM     17  C27 UNL     1     149.933 165.612 171.331  0.00  0.00    +0.000 C 
ATOM     18  C28 UNL     1     151.161 166.338 170.854  0.00  0.00    +0.000 C 
ATOM     19  C29 UNL     1     152.212 165.404 170.334  0.00  0.00    +0.000 C 
ATOM     20  C30 UNL     1     151.738 167.070 172.048  0.00  0.00    +0.000 C 
ATOM     21  C31 UNL     1     150.725 167.371 169.847  0.00  0.00    +0.000 C 
ATOM     22  H1  UNL     1     147.454 165.392 170.840  0.00  0.00    +0.000 HD
ENDROOT
BRANCH   9  23
ATOM     23  C7  UNL     1     150.884 161.744 168.794  0.00  0.00    +0.000 A 
ATOM     24  C8  UNL     1     150.641 160.935 169.860  0.00  0.00    +0.000 A 
ATOM     25  C9  UNL     1     151.378 159.769 170.065  0.00  0.00    +0.000 A 
ATOM     26  C10 UNL     1     152.383 159.425 169.158  0.00  0.00    +0.000 A 
ATOM     27  C18 UNL     1     152.604 160.264 168.089  0.00  0.00    +0.000 A 
ATOM     28  C19 UNL     1     151.858 161.432 167.894  0.00  0.00    +0.000 A 
BRANCH  25  29
ATOM     29  O3  UNL     1     151.146 158.943 171.133  0.00  0.00    +0.000 OA
ATOM     30  C20 UNL     1     150.112 157.987 171.173  0.00  0.00    +0.000 C 
ENDBRANCH  25  29
BRANCH  26  31
ATOM     31  O2  UNL     1     153.138 158.270 169.329  0.00  0.00    +0.000 OA
BRANCH  31  32
ATOM     32  C11 UNL     1     154.293 158.103 168.549  0.00  0.00    +0.000 C 
BRANCH  32  33
ATOM     33  C12 UNL     1     155.545 158.229 169.302  0.00  0.00    +0.000 A 
ATOM     34  C13 UNL     1     156.761 158.162 168.653  0.00  0.00    +0.000 A 
ATOM     35  C14 UNL     1     157.962 158.276 169.332  0.00  0.00    +0.000 A 
ATOM     36  C15 UNL     1     157.966 158.459 170.684  0.00  0.00    +0.000 A 
ATOM     37  C16 UNL     1     156.747 158.530 171.358  0.00  0.00    +0.000 A 
ATOM     38  C17 UNL     1     155.563 158.415 170.665  0.00  0.00    +0.000 A 
ENDBRANCH  32  33
ENDBRANCH  31  32
ENDBRANCH  26  31
ENDBRANCH   9  23
TORSDOF 5
ENDMDL
MODEL 8
REMARK VINA RESULT:      -7.2      7.050     10.959
REMARK  Name = ./3D_structures\o45_MMV1634557_3D.pdb
REMARK  9 active torsions:
REMARK  status: ('A' for Active; 'I' for Inactive)
REMARK    1  A    between atoms: C6_9  and  C7_10
REMARK    2  A    between atoms: C9_12  and  O3_24
REMARK    3  A    between atoms: C10_13  and  O2_14
REMARK    4  A    between atoms: O2_14  and  C11_15
REMARK    5  A    between atoms: C11_15  and  C12_16
REMARK    6  A    between atoms: O3_24  and  C20_25
REMARK    7  A    between atoms: C21_26  and  C22_28
REMARK    8  A    between atoms: C28_34  and  C30_36
REMARK    9  A    between atoms: C28_34  and  C31_37
REMARK                            x       y       z     vdW  Elec       q    Type
REMARK                         _______ _______ _______ _____ _____    ______ ____
ROOT
ATOM      1  O1  UNL     1     156.859 155.531 164.261  0.00  0.00    +0.000 OA
ATOM      2  C1  UNL     1     157.792 155.044 163.617  0.00  0.00    +0.000 C 
ATOM      3  C2  UNL     1     159.177 155.294 164.123  0.00  0.00    +0.000 C 
ATOM      4  C3  UNL     1     160.025 154.286 164.083  0.00  0.00    +0.000 C 
ATOM      5  N1  UNL     1     161.385 154.129 164.457  0.00  0.00    +0.000 N 
ATOM      6  C4  UNL     1     162.270 155.248 164.709  0.00  0.00    +0.000 A 
ATOM      7  C5  UNL     1     161.861 156.517 165.074  0.00  0.00    +0.000 A 
ATOM      8  N2  UNL     1     160.549 156.991 165.326  0.00  0.00    +0.000 N 
ATOM      9  C6  UNL     1     159.338 156.667 164.609  0.00  0.00    +0.000 C 
ATOM     10  C21 UNL     1     160.423 157.875 166.467  0.00  0.00    +0.000 C 
ATOM     11  O4  UNL     1     159.429 158.645 166.591  0.00  0.00    +0.000 OA
ATOM     12  C22 UNL     1     161.405 157.943 167.557  0.00  0.00    +0.000 C 
ATOM     13  C23 UNL     1     162.813 157.533 165.252  0.00  0.00    +0.000 A 
ATOM     14  C24 UNL     1     164.131 157.213 165.055  0.00  0.00    +0.000 A 
ATOM     15  C25 UNL     1     164.527 155.943 164.692  0.00  0.00    +0.000 A 
ATOM     16  C26 UNL     1     163.584 154.951 164.519  0.00  0.00    +0.000 A 
ATOM     17  C27 UNL     1     159.479 152.978 163.535  0.00  0.00    +0.000 C 
ATOM     18  C28 UNL     1     158.739 153.217 162.247  0.00  0.00    +0.000 C 
ATOM     19  C29 UNL     1     157.652 154.239 162.394  0.00  0.00    +0.000 C 
ATOM     20  C30 UNL     1     158.095 151.906 161.852  0.00  0.00    +0.000 C 
ATOM     21  C31 UNL     1     159.755 153.569 161.191  0.00  0.00    +0.000 C 
ATOM     22  H1  UNL     1     161.791 153.195 164.554  0.00  0.00    +0.000 HD
ENDROOT
BRANCH   9  23
ATOM     23  C7  UNL     1     158.156 157.112 165.398  0.00  0.00    +0.000 A 
ATOM     24  C8  UNL     1     157.359 158.135 164.990  0.00  0.00    +0.000 A 
ATOM     25  C9  UNL     1     156.238 158.515 165.727  0.00  0.00    +0.000 A 
ATOM     26  C10 UNL     1     155.928 157.833 166.906  0.00  0.00    +0.000 A 
ATOM     27  C18 UNL     1     156.755 156.801 167.292  0.00  0.00    +0.000 A 
ATOM     28  C19 UNL     1     157.878 156.428 166.544  0.00  0.00    +0.000 A 
BRANCH  25  29
ATOM     29  O3  UNL     1     155.424 159.543 165.331  0.00  0.00    +0.000 OA
ATOM     30  C20 UNL     1     155.771 160.904 165.445  0.00  0.00    +0.000 C 
ENDBRANCH  25  29
BRANCH  26  31
ATOM     31  O2  UNL     1     154.819 158.184 167.667  0.00  0.00    +0.000 OA
BRANCH  31  32
ATOM     32  C11 UNL     1     154.581 157.490 168.863  0.00  0.00    +0.000 C 
BRANCH  32  33
ATOM     33  C12 UNL     1     155.001 158.215 170.068  0.00  0.00    +0.000 A 
ATOM     34  C13 UNL     1     156.111 157.807 170.778  0.00  0.00    +0.000 A 
ATOM     35  C14 UNL     1     156.535 158.467 171.918  0.00  0.00    +0.000 A 
ATOM     36  C15 UNL     1     155.848 159.555 172.372  0.00  0.00    +0.000 A 
ATOM     37  C16 UNL     1     154.722 159.983 171.667  0.00  0.00    +0.000 A 
ATOM     38  C17 UNL     1     154.317 159.313 170.535  0.00  0.00    +0.000 A 
ENDBRANCH  32  33
ENDBRANCH  31  32
ENDBRANCH  26  31
ENDBRANCH   9  23
TORSDOF 5
ENDMDL
MODEL 9
REMARK VINA RESULT:      -7.1      4.973     10.295
REMARK  Name = ./3D_structures\o45_MMV1634557_3D.pdb
REMARK  9 active torsions:
REMARK  status: ('A' for Active; 'I' for Inactive)
REMARK    1  A    between atoms: C6_9  and  C7_10
REMARK    2  A    between atoms: C9_12  and  O3_24
REMARK    3  A    between atoms: C10_13  and  O2_14
REMARK    4  A    between atoms: O2_14  and  C11_15
REMARK    5  A    between atoms: C11_15  and  C12_16
REMARK    6  A    between atoms: O3_24  and  C20_25
REMARK    7  A    between atoms: C21_26  and  C22_28
REMARK    8  A    between atoms: C28_34  and  C30_36
REMARK    9  A    between atoms: C28_34  and  C31_37
REMARK                            x       y       z     vdW  Elec       q    Type
REMARK                         _______ _______ _______ _____ _____    ______ ____
ROOT
ATOM      1  O1  UNL     1     154.773 159.523 165.322  0.00  0.00    +0.000 OA
ATOM      2  C1  UNL     1     154.089 160.078 166.187  0.00  0.00    +0.000 C 
ATOM      3  C2  UNL     1     154.657 160.145 167.568  0.00  0.00    +0.000 C 
ATOM      4  C3  UNL     1     154.498 161.273 168.231  0.00  0.00    +0.000 C 
ATOM      5  N1  UNL     1     154.878 161.716 169.525  0.00  0.00    +0.000 N 
ATOM      6  C4  UNL     1     155.303 160.813 170.576  0.00  0.00    +0.000 A 
ATOM      7  C5  UNL     1     155.830 159.551 170.375  0.00  0.00    +0.000 A 
ATOM      8  N2  UNL     1     156.115 158.890 169.153  0.00  0.00    +0.000 N 
ATOM      9  C6  UNL     1     155.331 158.899 167.939  0.00  0.00    +0.000 C 
ATOM     10  C21 UNL     1     157.363 158.157 169.127  0.00  0.00    +0.000 C 
ATOM     11  O4  UNL     1     157.569 157.247 168.276  0.00  0.00    +0.000 OA
ATOM     12  C22 UNL     1     158.474 158.408 170.054  0.00  0.00    +0.000 C 
ATOM     13  C23 UNL     1     156.169 158.752 171.477  0.00  0.00    +0.000 A 
ATOM     14  C24 UNL     1     155.960 159.271 172.729  0.00  0.00    +0.000 A 
ATOM     15  C25 UNL     1     155.435 160.532 172.917  0.00  0.00    +0.000 A 
ATOM     16  C26 UNL     1     155.104 161.310 171.828  0.00  0.00    +0.000 A 
ATOM     17  C27 UNL     1     153.763 162.380 167.495  0.00  0.00    +0.000 C 
ATOM     18  C28 UNL     1     152.503 161.847 166.869  0.00  0.00    +0.000 C 
ATOM     19  C29 UNL     1     152.764 160.677 165.968  0.00  0.00    +0.000 C 
ATOM     20  C30 UNL     1     151.915 162.961 166.029  0.00  0.00    +0.000 C 
ATOM     21  C31 UNL     1     151.530 161.543 167.979  0.00  0.00    +0.000 C 
ATOM     22  H1  UNL     1     154.855 162.711 169.759  0.00  0.00    +0.000 HD
ENDROOT
BRANCH   9  23
ATOM     23  C7  UNL     1     156.147 158.360 166.816  0.00  0.00    +0.000 A 
ATOM     24  C8  UNL     1     157.211 159.037 166.308  0.00  0.00    +0.000 A 
ATOM     25  C9  UNL     1     157.983 158.500 165.278  0.00  0.00    +0.000 A 
ATOM     26  C10 UNL     1     157.656 157.246 164.757  0.00  0.00    +0.000 A 
ATOM     27  C18 UNL     1     156.572 156.586 165.294  0.00  0.00    +0.000 A 
ATOM     28  C19 UNL     1     155.805 157.135 166.328  0.00  0.00    +0.000 A 
BRANCH  25  29
ATOM     29  O3  UNL     1     159.059 159.167 164.754  0.00  0.00    +0.000 OA
ATOM     30  C20 UNL     1     160.333 159.188 165.355  0.00  0.00    +0.000 C 
ENDBRANCH  25  29
BRANCH  26  31
ATOM     31  O2  UNL     1     158.401 156.679 163.730  0.00  0.00    +0.000 OA
BRANCH  31  32
ATOM     32  C11 UNL     1     159.251 155.604 164.033  0.00  0.00    +0.000 C 
BRANCH  32  33
ATOM     33  C12 UNL     1     158.659 154.286 163.779  0.00  0.00    +0.000 A 
ATOM     34  C13 UNL     1     157.847 154.083 162.683  0.00  0.00    +0.000 A 
ATOM     35  C14 UNL     1     157.271 152.853 162.414  0.00  0.00    +0.000 A 
ATOM     36  C15 UNL     1     157.501 151.796 163.246  0.00  0.00    +0.000 A 
ATOM     37  C16 UNL     1     158.320 151.981 164.360  0.00  0.00    +0.000 A 
ATOM     38  C17 UNL     1     158.884 153.212 164.610  0.00  0.00    +0.000 A 
ENDBRANCH  32  33
ENDBRANCH  31  32
ENDBRANCH  26  31
ENDBRANCH   9  23
TORSDOF 5
ENDMDL
