MODEL 1
REMARK VINA RESULT:      -7.0      0.000      0.000
REMARK  Name = ./3D_structures\o46_MMV030787_3D.pdb
REMARK  5 active torsions:
REMARK  status: ('A' for Active; 'I' for Inactive)
REMARK    1  A    between atoms: C4_5  and  N1_8
REMARK    2  A    between atoms: C8_11  and  N3_12
REMARK    3  A    between atoms: C9_13  and  C10_14
REMARK    4  A    between atoms: C19_23  and  C22_27
REMARK    5  A    between atoms: C20_24  and  C21_25
REMARK                            x       y       z     vdW  Elec       q    Type
REMARK                         _______ _______ _______ _____ _____    ______ ____
ROOT
ATOM      1  N1  UNL     1     149.660 162.828 168.998  0.00  0.00    +0.000 N 
ATOM      2  C7  UNL     1     150.223 161.530 169.276  0.00  0.00    +0.000 A 
ATOM      3  N2  UNL     1     151.552 161.440 169.532  0.00  0.00    +0.000 NA
ATOM      4  C8  UNL     1     152.168 160.293 169.810  0.00  0.00    +0.000 A 
ATOM      5  C19 UNL     1     151.432 159.134 169.841  0.00  0.00    +0.000 A 
ATOM      6  C20 UNL     1     150.062 159.224 169.578  0.00  0.00    +0.000 A 
ATOM      7  C21 UNL     1     149.224 157.997 169.601  0.00  0.00    +0.000 C 
ATOM      8  N4  UNL     1     149.504 160.410 169.306  0.00  0.00    +0.000 NA
ATOM      9  C22 UNL     1     152.020 157.809 170.134  0.00  0.00    +0.000 C 
ATOM     10  H5  UNL     1     150.342 163.653 169.013  0.00  0.00    +0.000 HD
ENDROOT
BRANCH   4  11
ATOM     11  N3  UNL     1     153.574 160.228 170.083  0.00  0.00    +0.000 N 
ATOM     12  C9  UNL     1     154.576 160.236 169.049  0.00  0.00    +0.000 C 
ATOM     13  C10 UNL     1     154.032 159.693 167.755  0.00  0.00    +0.000 C 
ATOM     14  C11 UNL     1     155.817 159.523 169.474  0.00  0.00    +0.000 A 
ATOM     15  C12 UNL     1     156.220 159.759 170.774  0.00  0.00    +0.000 A 
ATOM     16  C13 UNL     1     155.396 160.680 171.626  0.00  0.00    +0.000 C 
ATOM     17  C14 UNL     1     153.970 160.152 171.475  0.00  0.00    +0.000 C 
ATOM     18  C15 UNL     1     157.357 159.132 171.222  0.00  0.00    +0.000 A 
ATOM     19  C16 UNL     1     158.065 158.287 170.366  0.00  0.00    +0.000 A 
ATOM     20  C17 UNL     1     157.663 158.050 169.065  0.00  0.00    +0.000 A 
ATOM     21  C18 UNL     1     156.520 158.684 168.628  0.00  0.00    +0.000 A 
ENDBRANCH   4  11
BRANCH   1  26
ATOM     22  F1  UNL     1     144.325 163.969 168.227  0.00  0.00    +0.000 F 
ATOM     23  C1  UNL     1     145.640 163.681 168.385  0.00  0.00    +0.000 A 
ATOM     24  C2  UNL     1     146.350 163.114 167.357  0.00  0.00    +0.000 A 
ATOM     25  C3  UNL     1     147.700 162.814 167.510  0.00  0.00    +0.000 A 
ATOM     26  C4  UNL     1     148.307 163.096 168.706  0.00  0.00    +0.000 A 
ATOM     27  C5  UNL     1     147.557 163.676 169.739  0.00  0.00    +0.000 A 
ATOM     28  C6  UNL     1     146.235 163.969 169.589  0.00  0.00    +0.000 A 
ENDBRANCH   1  26
TORSDOF 2
ENDMDL
MODEL 2
REMARK VINA RESULT:      -6.9      2.372      3.808
REMARK  Name = ./3D_structures\o46_MMV030787_3D.pdb
REMARK  5 active torsions:
REMARK  status: ('A' for Active; 'I' for Inactive)
REMARK    1  A    between atoms: C4_5  and  N1_8
REMARK    2  A    between atoms: C8_11  and  N3_12
REMARK    3  A    between atoms: C9_13  and  C10_14
REMARK    4  A    between atoms: C19_23  and  C22_27
REMARK    5  A    between atoms: C20_24  and  C21_25
REMARK                            x       y       z     vdW  Elec       q    Type
REMARK                         _______ _______ _______ _____ _____    ______ ____
ROOT
ATOM      1  N1  UNL     1     147.309 162.688 167.090  0.00  0.00    +0.000 N 
ATOM      2  C7  UNL     1     148.299 162.962 168.100  0.00  0.00    +0.000 A 
ATOM      3  N2  UNL     1     149.275 162.046 168.319  0.00  0.00    +0.000 NA
ATOM      4  C8  UNL     1     150.242 162.207 169.219  0.00  0.00    +0.000 A 
ATOM      5  C19 UNL     1     150.264 163.354 169.973  0.00  0.00    +0.000 A 
ATOM      6  C20 UNL     1     149.260 164.301 169.750  0.00  0.00    +0.000 A 
ATOM      7  C21 UNL     1     149.243 165.559 170.540  0.00  0.00    +0.000 C 
ATOM      8  N4  UNL     1     148.317 164.078 168.827  0.00  0.00    +0.000 NA
ATOM      9  C22 UNL     1     151.291 163.627 171.003  0.00  0.00    +0.000 C 
ATOM     10  H5  UNL     1     147.410 161.759 166.567  0.00  0.00    +0.000 HD
ENDROOT
BRANCH   4  11
ATOM     11  N3  UNL     1     151.265 161.223 169.426  0.00  0.00    +0.000 N 
ATOM     12  C9  UNL     1     152.554 161.285 168.787  0.00  0.00    +0.000 C 
ATOM     13  C10 UNL     1     152.486 162.042 167.489  0.00  0.00    +0.000 C 
ATOM     14  C11 UNL     1     153.150 159.928 168.610  0.00  0.00    +0.000 A 
ATOM     15  C12 UNL     1     152.993 159.067 169.680  0.00  0.00    +0.000 A 
ATOM     16  C13 UNL     1     152.252 159.554 170.891  0.00  0.00    +0.000 C 
ATOM     17  C14 UNL     1     150.954 160.132 170.327  0.00  0.00    +0.000 C 
ATOM     18  C15 UNL     1     153.522 157.804 169.576  0.00  0.00    +0.000 A 
ATOM     19  C16 UNL     1     154.195 157.428 168.412  0.00  0.00    +0.000 A 
ATOM     20  C17 UNL     1     154.353 158.288 167.342  0.00  0.00    +0.000 A 
ATOM     21  C18 UNL     1     153.817 159.552 167.458  0.00  0.00    +0.000 A 
ENDBRANCH   4  11
BRANCH   1  26
ATOM     22  F1  UNL     1     143.345 166.211 165.592  0.00  0.00    +0.000 F 
ATOM     23  C1  UNL     1     144.297 165.324 165.972  0.00  0.00    +0.000 A 
ATOM     24  C2  UNL     1     143.958 164.227 166.723  0.00  0.00    +0.000 A 
ATOM     25  C3  UNL     1     144.928 163.311 167.118  0.00  0.00    +0.000 A 
ATOM     26  C4  UNL     1     146.229 163.525 166.743  0.00  0.00    +0.000 A 
ATOM     27  C5  UNL     1     146.547 164.655 165.975  0.00  0.00    +0.000 A 
ATOM     28  C6  UNL     1     145.597 165.551 165.589  0.00  0.00    +0.000 A 
ENDBRANCH   1  26
TORSDOF 2
ENDMDL
MODEL 3
REMARK VINA RESULT:      -6.8      1.184      2.053
REMARK  Name = ./3D_structures\o46_MMV030787_3D.pdb
REMARK  5 active torsions:
REMARK  status: ('A' for Active; 'I' for Inactive)
REMARK    1  A    between atoms: C4_5  and  N1_8
REMARK    2  A    between atoms: C8_11  and  N3_12
REMARK    3  A    between atoms: C9_13  and  C10_14
REMARK    4  A    between atoms: C19_23  and  C22_27
REMARK    5  A    between atoms: C20_24  and  C21_25
REMARK                            x       y       z     vdW  Elec       q    Type
REMARK                         _______ _______ _______ _____ _____    ______ ____
ROOT
ATOM      1  N1  UNL     1     150.670 162.251 168.590  0.00  0.00    +0.000 N 
ATOM      2  C7  UNL     1     150.895 160.886 168.995  0.00  0.00    +0.000 A 
ATOM      3  N2  UNL     1     152.156 160.390 168.935  0.00  0.00    +0.000 NA
ATOM      4  C8  UNL     1     152.472 159.148 169.295  0.00  0.00    +0.000 A 
ATOM      5  C19 UNL     1     151.480 158.315 169.751  0.00  0.00    +0.000 A 
ATOM      6  C20 UNL     1     150.180 158.823 169.814  0.00  0.00    +0.000 A 
ATOM      7  C21 UNL     1     149.073 157.960 170.301  0.00  0.00    +0.000 C 
ATOM      8  N4  UNL     1     149.929 160.083 169.437  0.00  0.00    +0.000 NA
ATOM      9  C22 UNL     1     151.725 156.917 170.170  0.00  0.00    +0.000 C 
ATOM     10  H5  UNL     1     151.532 162.795 168.262  0.00  0.00    +0.000 HD
ENDROOT
BRANCH   4  11
ATOM     11  N3  UNL     1     153.816 158.651 169.228  0.00  0.00    +0.000 N 
ATOM     12  C9  UNL     1     154.721 158.680 170.347  0.00  0.00    +0.000 C 
ATOM     13  C10 UNL     1     154.373 159.788 171.305  0.00  0.00    +0.000 C 
ATOM     14  C11 UNL     1     156.145 158.752 169.906  0.00  0.00    +0.000 A 
ATOM     15  C12 UNL     1     156.472 157.958 168.824  0.00  0.00    +0.000 A 
ATOM     16  C13 UNL     1     155.396 157.119 168.198  0.00  0.00    +0.000 C 
ATOM     17  C14 UNL     1     154.249 158.100 167.959  0.00  0.00    +0.000 C 
ATOM     18  C15 UNL     1     157.769 157.981 168.374  0.00  0.00    +0.000 A 
ATOM     19  C16 UNL     1     158.710 158.792 169.011  0.00  0.00    +0.000 A 
ATOM     20  C17 UNL     1     158.384 159.587 170.093  0.00  0.00    +0.000 A 
ATOM     21  C18 UNL     1     157.080 159.556 170.535  0.00  0.00    +0.000 A 
ENDBRANCH   4  11
BRANCH   1  26
ATOM     22  F1  UNL     1     145.878 164.950 168.930  0.00  0.00    +0.000 F 
ATOM     23  C1  UNL     1     147.050 164.278 168.815  0.00  0.00    +0.000 A 
ATOM     24  C2  UNL     1     147.314 163.539 167.690  0.00  0.00    +0.000 A 
ATOM     25  C3  UNL     1     148.514 162.847 167.563  0.00  0.00    +0.000 A 
ATOM     26  C4  UNL     1     149.428 162.916 168.583  0.00  0.00    +0.000 A 
ATOM     27  C5  UNL     1     149.131 163.680 169.721  0.00  0.00    +0.000 A 
ATOM     28  C6  UNL     1     147.956 164.357 169.844  0.00  0.00    +0.000 A 
ENDBRANCH   1  26
TORSDOF 2
ENDMDL
MODEL 4
REMARK VINA RESULT:      -6.7      3.250      9.575
REMARK  Name = ./3D_structures\o46_MMV030787_3D.pdb
REMARK  5 active torsions:
REMARK  status: ('A' for Active; 'I' for Inactive)
REMARK    1  A    between atoms: C4_5  and  N1_8
REMARK    2  A    between atoms: C8_11  and  N3_12
REMARK    3  A    between atoms: C9_13  and  C10_14
REMARK    4  A    between atoms: C19_23  and  C22_27
REMARK    5  A    between atoms: C20_24  and  C21_25
REMARK                            x       y       z     vdW  Elec       q    Type
REMARK                         _______ _______ _______ _____ _____    ______ ____
ROOT
ATOM      1  N1  UNL     1     150.296 160.575 168.305  0.00  0.00    +0.000 N 
ATOM      2  C7  UNL     1     149.882 161.864 168.800  0.00  0.00    +0.000 A 
ATOM      3  N2  UNL     1     148.780 162.443 168.262  0.00  0.00    +0.000 NA
ATOM      4  C8  UNL     1     148.307 163.624 168.654  0.00  0.00    +0.000 A 
ATOM      5  C19 UNL     1     148.961 164.303 169.653  0.00  0.00    +0.000 A 
ATOM      6  C20 UNL     1     150.098 163.709 170.209  0.00  0.00    +0.000 A 
ATOM      7  C21 UNL     1     150.838 164.405 171.293  0.00  0.00    +0.000 C 
ATOM      8  N4  UNL     1     150.520 162.517 169.769  0.00  0.00    +0.000 NA
ATOM      9  C22 UNL     1     148.523 165.623 170.156  0.00  0.00    +0.000 C 
ATOM     10  H5  UNL     1     149.694 160.150 167.529  0.00  0.00    +0.000 HD
ENDROOT
BRANCH   4  11
ATOM     11  N3  UNL     1     147.135 164.210 168.071  0.00  0.00    +0.000 N 
ATOM     12  C9  UNL     1     145.818 164.050 168.629  0.00  0.00    +0.000 C 
ATOM     13  C10 UNL     1     145.710 162.777 169.423  0.00  0.00    +0.000 C 
ATOM     14  C11 UNL     1     144.758 164.145 167.582  0.00  0.00    +0.000 A 
ATOM     15  C12 UNL     1     144.949 165.131 166.633  0.00  0.00    +0.000 A 
ATOM     16  C13 UNL     1     146.174 165.993 166.729  0.00  0.00    +0.000 C 
ATOM     17  C14 UNL     1     147.323 164.994 166.868  0.00  0.00    +0.000 C 
ATOM     18  C15 UNL     1     144.005 165.268 165.645  0.00  0.00    +0.000 A 
ATOM     19  C16 UNL     1     142.895 164.422 165.625  0.00  0.00    +0.000 A 
ATOM     20  C17 UNL     1     142.702 163.436 166.574  0.00  0.00    +0.000 A 
ATOM     21  C18 UNL     1     143.656 163.309 167.560  0.00  0.00    +0.000 A 
ENDBRANCH   4  11
BRANCH   1  26
ATOM     22  F1  UNL     1     154.881 157.877 169.743  0.00  0.00    +0.000 F 
ATOM     23  C1  UNL     1     153.737 158.526 169.414  0.00  0.00    +0.000 A 
ATOM     24  C2  UNL     1     152.557 158.203 170.036  0.00  0.00    +0.000 A 
ATOM     25  C3  UNL     1     151.379 158.864 169.705  0.00  0.00    +0.000 A 
ATOM     26  C4  UNL     1     151.417 159.843 168.746  0.00  0.00    +0.000 A 
ATOM     27  C5  UNL     1     152.637 160.152 168.127  0.00  0.00    +0.000 A 
ATOM     28  C6  UNL     1     153.791 159.505 168.451  0.00  0.00    +0.000 A 
ENDBRANCH   1  26
TORSDOF 2
ENDMDL
MODEL 5
REMARK VINA RESULT:      -6.5      5.725     10.114
REMARK  Name = ./3D_structures\o46_MMV030787_3D.pdb
REMARK  5 active torsions:
REMARK  status: ('A' for Active; 'I' for Inactive)
REMARK    1  A    between atoms: C4_5  and  N1_8
REMARK    2  A    between atoms: C8_11  and  N3_12
REMARK    3  A    between atoms: C9_13  and  C10_14
REMARK    4  A    between atoms: C19_23  and  C22_27
REMARK    5  A    between atoms: C20_24  and  C21_25
REMARK                            x       y       z     vdW  Elec       q    Type
REMARK                         _______ _______ _______ _____ _____    ______ ____
ROOT
ATOM      1  N1  UNL     1     156.711 155.518 164.943  0.00  0.00    +0.000 N 
ATOM      2  C7  UNL     1     156.794 156.489 166.004  0.00  0.00    +0.000 A 
ATOM      3  N2  UNL     1     155.645 156.918 166.585  0.00  0.00    +0.000 NA
ATOM      4  C8  UNL     1     155.613 157.802 167.579  0.00  0.00    +0.000 A 
ATOM      5  C19 UNL     1     156.796 158.317 168.049  0.00  0.00    +0.000 A 
ATOM      6  C20 UNL     1     157.981 157.878 167.453  0.00  0.00    +0.000 A 
ATOM      7  C21 UNL     1     159.286 158.406 167.929  0.00  0.00    +0.000 C 
ATOM      8  N4  UNL     1     157.944 156.984 166.457  0.00  0.00    +0.000 NA
ATOM      9  C22 UNL     1     156.869 159.309 169.144  0.00  0.00    +0.000 C 
ATOM     10  H5  UNL     1     155.726 155.191 164.676  0.00  0.00    +0.000 HD
ENDROOT
BRANCH   4  11
ATOM     11  N3  UNL     1     154.383 158.233 168.178  0.00  0.00    +0.000 N 
ATOM     12  C9  UNL     1     153.492 159.175 167.552  0.00  0.00    +0.000 C 
ATOM     13  C10 UNL     1     154.231 160.084 166.608  0.00  0.00    +0.000 C 
ATOM     14  C11 UNL     1     152.700 159.942 168.558  0.00  0.00    +0.000 A 
ATOM     15  C12 UNL     1     152.224 159.204 169.625  0.00  0.00    +0.000 A 
ATOM     16  C13 UNL     1     152.541 157.738 169.683  0.00  0.00    +0.000 C 
ATOM     17  C14 UNL     1     154.054 157.674 169.474  0.00  0.00    +0.000 C 
ATOM     18  C15 UNL     1     151.486 159.855 170.583  0.00  0.00    +0.000 A 
ATOM     19  C16 UNL     1     151.239 161.223 170.456  0.00  0.00    +0.000 A 
ATOM     20  C17 UNL     1     151.714 161.962 169.390  0.00  0.00    +0.000 A 
ATOM     21  C18 UNL     1     152.453 161.297 168.436  0.00  0.00    +0.000 A 
ENDBRANCH   4  11
BRANCH   1  26
ATOM     22  F1  UNL     1     160.839 153.586 161.846  0.00  0.00    +0.000 F 
ATOM     23  C1  UNL     1     159.836 154.045 162.634  0.00  0.00    +0.000 A 
ATOM     24  C2  UNL     1     159.691 153.571 163.913  0.00  0.00    +0.000 A 
ATOM     25  C3  UNL     1     158.665 154.037 164.729  0.00  0.00    +0.000 A 
ATOM     26  C4  UNL     1     157.800 154.976 164.231  0.00  0.00    +0.000 A 
ATOM     27  C5  UNL     1     157.972 155.443 162.919  0.00  0.00    +0.000 A 
ATOM     28  C6  UNL     1     158.977 154.987 162.122  0.00  0.00    +0.000 A 
ENDBRANCH   1  26
TORSDOF 2
ENDMDL
MODEL 6
REMARK VINA RESULT:      -6.5      3.604      5.295
REMARK  Name = ./3D_structures\o46_MMV030787_3D.pdb
REMARK  5 active torsions:
REMARK  status: ('A' for Active; 'I' for Inactive)
REMARK    1  A    between atoms: C4_5  and  N1_8
REMARK    2  A    between atoms: C8_11  and  N3_12
REMARK    3  A    between atoms: C9_13  and  C10_14
REMARK    4  A    between atoms: C19_23  and  C22_27
REMARK    5  A    between atoms: C20_24  and  C21_25
REMARK                            x       y       z     vdW  Elec       q    Type
REMARK                         _______ _______ _______ _____ _____    ______ ____
ROOT
ATOM      1  N1  UNL     1     150.913 156.379 170.554  0.00  0.00    +0.000 N 
ATOM      2  C7  UNL     1     151.741 157.464 170.090  0.00  0.00    +0.000 A 
ATOM      3  N2  UNL     1     152.954 157.173 169.556  0.00  0.00    +0.000 NA
ATOM      4  C8  UNL     1     153.789 158.098 169.090  0.00  0.00    +0.000 A 
ATOM      5  C19 UNL     1     153.417 159.419 169.148  0.00  0.00    +0.000 A 
ATOM      6  C20 UNL     1     152.168 159.722 169.697  0.00  0.00    +0.000 A 
ATOM      7  C21 UNL     1     151.721 161.137 169.780  0.00  0.00    +0.000 C 
ATOM      8  N4  UNL     1     151.374 158.742 170.147  0.00  0.00    +0.000 NA
ATOM      9  C22 UNL     1     154.274 160.524 168.663  0.00  0.00    +0.000 C 
ATOM     10  H5  UNL     1     151.318 155.394 170.444  0.00  0.00    +0.000 HD
ENDROOT
BRANCH   4  11
ATOM     11  N3  UNL     1     155.064 157.762 168.525  0.00  0.00    +0.000 N 
ATOM     12  C9  UNL     1     156.206 157.403 169.324  0.00  0.00    +0.000 C 
ATOM     13  C10 UNL     1     156.126 158.010 170.698  0.00  0.00    +0.000 C 
ATOM     14  C11 UNL     1     157.489 157.742 168.640  0.00  0.00    +0.000 A 
ATOM     15  C12 UNL     1     157.528 157.469 167.285  0.00  0.00    +0.000 A 
ATOM     16  C13 UNL     1     156.311 156.879 166.636  0.00  0.00    +0.000 C 
ATOM     17  C14 UNL     1     155.170 157.794 167.080  0.00  0.00    +0.000 C 
ATOM     18  C15 UNL     1     158.684 157.757 166.602  0.00  0.00    +0.000 A 
ATOM     19  C16 UNL     1     159.772 158.309 167.280  0.00  0.00    +0.000 A 
ATOM     20  C17 UNL     1     159.734 158.582 168.634  0.00  0.00    +0.000 A 
ATOM     21  C18 UNL     1     158.569 158.289 169.309  0.00  0.00    +0.000 A 
ENDBRANCH   4  11
BRANCH   1  26
ATOM     22  F1  UNL     1     146.081 156.759 173.175  0.00  0.00    +0.000 F 
ATOM     23  C1  UNL     1     147.255 156.676 172.502  0.00  0.00    +0.000 A 
ATOM     24  C2  UNL     1     147.283 156.840 171.140  0.00  0.00    +0.000 A 
ATOM     25  C3  UNL     1     148.483 156.756 170.442  0.00  0.00    +0.000 A 
ATOM     26  C4  UNL     1     149.637 156.505 171.138  0.00  0.00    +0.000 A 
ATOM     27  C5  UNL     1     149.578 156.342 172.531  0.00  0.00    +0.000 A 
ATOM     28  C6  UNL     1     148.403 156.424 173.213  0.00  0.00    +0.000 A 
ENDBRANCH   1  26
TORSDOF 2
ENDMDL
MODEL 7
REMARK VINA RESULT:      -6.4      3.487      9.259
REMARK  Name = ./3D_structures\o46_MMV030787_3D.pdb
REMARK  5 active torsions:
REMARK  status: ('A' for Active; 'I' for Inactive)
REMARK    1  A    between atoms: C4_5  and  N1_8
REMARK    2  A    between atoms: C8_11  and  N3_12
REMARK    3  A    between atoms: C9_13  and  C10_14
REMARK    4  A    between atoms: C19_23  and  C22_27
REMARK    5  A    between atoms: C20_24  and  C21_25
REMARK                            x       y       z     vdW  Elec       q    Type
REMARK                         _______ _______ _______ _____ _____    ______ ____
ROOT
ATOM      1  N1  UNL     1     151.991 161.266 170.088  0.00  0.00    +0.000 N 
ATOM      2  C7  UNL     1     151.202 162.465 170.222  0.00  0.00    +0.000 A 
ATOM      3  N2  UNL     1     150.171 162.664 169.363  0.00  0.00    +0.000 NA
ATOM      4  C8  UNL     1     149.376 163.730 169.408  0.00  0.00    +0.000 A 
ATOM      5  C19 UNL     1     149.600 164.688 170.366  0.00  0.00    +0.000 A 
ATOM      6  C20 UNL     1     150.662 164.486 171.253  0.00  0.00    +0.000 A 
ATOM      7  C21 UNL     1     150.944 165.494 172.308  0.00  0.00    +0.000 C 
ATOM      8  N4  UNL     1     151.424 163.389 171.154  0.00  0.00    +0.000 NA
ATOM      9  C22 UNL     1     148.780 165.911 170.497  0.00  0.00    +0.000 C 
ATOM     10  H5  UNL     1     151.705 160.597 169.303  0.00  0.00    +0.000 HD
ENDROOT
BRANCH   4  11
ATOM     11  N3  UNL     1     148.288 163.912 168.490  0.00  0.00    +0.000 N 
ATOM     12  C9  UNL     1     148.456 164.478 167.177  0.00  0.00    +0.000 C 
ATOM     13  C10 UNL     1     149.650 165.392 167.122  0.00  0.00    +0.000 C 
ATOM     14  C11 UNL     1     147.213 165.157 166.704  0.00  0.00    +0.000 A 
ATOM     15  C12 UNL     1     146.033 164.494 166.984  0.00  0.00    +0.000 A 
ATOM     16  C13 UNL     1     146.099 163.189 167.722  0.00  0.00    +0.000 C 
ATOM     17  C14 UNL     1     146.975 163.493 168.938  0.00  0.00    +0.000 C 
ATOM     18  C15 UNL     1     144.856 165.070 166.571  0.00  0.00    +0.000 A 
ATOM     19  C16 UNL     1     144.881 166.288 165.891  0.00  0.00    +0.000 A 
ATOM     20  C17 UNL     1     146.060 166.952 165.611  0.00  0.00    +0.000 A 
ATOM     21  C18 UNL     1     147.234 166.365 166.030  0.00  0.00    +0.000 A 
ENDBRANCH   4  11
BRANCH   1  26
ATOM     22  F1  UNL     1     156.071 159.872 173.520  0.00  0.00    +0.000 F 
ATOM     23  C1  UNL     1     155.088 160.215 172.651  0.00  0.00    +0.000 A 
ATOM     24  C2  UNL     1     155.398 160.547 171.356  0.00  0.00    +0.000 A 
ATOM     25  C3  UNL     1     154.397 160.900 170.457  0.00  0.00    +0.000 A 
ATOM     26  C4  UNL     1     153.096 160.912 170.888  0.00  0.00    +0.000 A 
ATOM     27  C5  UNL     1     152.809 160.568 172.218  0.00  0.00    +0.000 A 
ATOM     28  C6  UNL     1     153.789 160.222 173.097  0.00  0.00    +0.000 A 
ENDBRANCH   1  26
TORSDOF 2
ENDMDL
MODEL 8
REMARK VINA RESULT:      -6.4      1.872      2.851
REMARK  Name = ./3D_structures\o46_MMV030787_3D.pdb
REMARK  5 active torsions:
REMARK  status: ('A' for Active; 'I' for Inactive)
REMARK    1  A    between atoms: C4_5  and  N1_8
REMARK    2  A    between atoms: C8_11  and  N3_12
REMARK    3  A    between atoms: C9_13  and  C10_14
REMARK    4  A    between atoms: C19_23  and  C22_27
REMARK    5  A    between atoms: C20_24  and  C21_25
REMARK                            x       y       z     vdW  Elec       q    Type
REMARK                         _______ _______ _______ _____ _____    ______ ____
ROOT
ATOM      1  N1  UNL     1     149.708 161.921 168.730  0.00  0.00    +0.000 N 
ATOM      2  C7  UNL     1     150.845 161.585 167.910  0.00  0.00    +0.000 A 
ATOM      3  N2  UNL     1     151.859 160.874 168.465  0.00  0.00    +0.000 NA
ATOM      4  C8  UNL     1     152.947 160.504 167.793  0.00  0.00    +0.000 A 
ATOM      5  C19 UNL     1     153.062 160.855 166.470  0.00  0.00    +0.000 A 
ATOM      6  C20 UNL     1     152.019 161.587 165.896  0.00  0.00    +0.000 A 
ATOM      7  C21 UNL     1     152.098 161.988 164.467  0.00  0.00    +0.000 C 
ATOM      8  N4  UNL     1     150.951 161.926 166.628  0.00  0.00    +0.000 NA
ATOM      9  C22 UNL     1     154.232 160.498 165.637  0.00  0.00    +0.000 C 
ATOM     10  H5  UNL     1     149.739 161.580 169.745  0.00  0.00    +0.000 HD
ENDROOT
BRANCH   4  11
ATOM     11  N3  UNL     1     154.001 159.748 168.403  0.00  0.00    +0.000 N 
ATOM     12  C9  UNL     1     154.916 160.309 169.363  0.00  0.00    +0.000 C 
ATOM     13  C10 UNL     1     155.063 161.795 169.176  0.00  0.00    +0.000 C 
ATOM     14  C11 UNL     1     156.235 159.611 169.345  0.00  0.00    +0.000 A 
ATOM     15  C12 UNL     1     156.177 158.236 169.226  0.00  0.00    +0.000 A 
ATOM     16  C13 UNL     1     154.831 157.580 169.122  0.00  0.00    +0.000 C 
ATOM     17  C14 UNL     1     154.121 158.357 168.014  0.00  0.00    +0.000 C 
ATOM     18  C15 UNL     1     157.360 157.539 169.205  0.00  0.00    +0.000 A 
ATOM     19  C16 UNL     1     158.571 158.226 169.303  0.00  0.00    +0.000 A 
ATOM     20  C17 UNL     1     158.631 159.601 169.422  0.00  0.00    +0.000 A 
ATOM     21  C18 UNL     1     157.438 160.289 169.441  0.00  0.00    +0.000 A 
ENDBRANCH   4  11
BRANCH   1  26
ATOM     22  F1  UNL     1     145.442 165.102 167.301  0.00  0.00    +0.000 F 
ATOM     23  C1  UNL     1     146.478 164.295 167.636  0.00  0.00    +0.000 A 
ATOM     24  C2  UNL     1     146.434 162.956 167.338  0.00  0.00    +0.000 A 
ATOM     25  C3  UNL     1     147.492 162.119 167.677  0.00  0.00    +0.000 A 
ATOM     26  C4  UNL     1     148.580 162.656 168.316  0.00  0.00    +0.000 A 
ATOM     27  C5  UNL     1     148.598 164.029 168.608  0.00  0.00    +0.000 A 
ATOM     28  C6  UNL     1     147.561 164.846 168.275  0.00  0.00    +0.000 A 
ENDBRANCH   1  26
TORSDOF 2
ENDMDL
MODEL 9
REMARK VINA RESULT:      -6.3      2.451      3.691
REMARK  Name = ./3D_structures\o46_MMV030787_3D.pdb
REMARK  5 active torsions:
REMARK  status: ('A' for Active; 'I' for Inactive)
REMARK    1  A    between atoms: C4_5  and  N1_8
REMARK    2  A    between atoms: C8_11  and  N3_12
REMARK    3  A    between atoms: C9_13  and  C10_14
REMARK    4  A    between atoms: C19_23  and  C22_27
REMARK    5  A    between atoms: C20_24  and  C21_25
REMARK                            x       y       z     vdW  Elec       q    Type
REMARK                         _______ _______ _______ _____ _____    ______ ____
ROOT
ATOM      1  N1  UNL     1     152.224 162.653 169.403  0.00  0.00    +0.000 N 
ATOM      2  C7  UNL     1     152.955 161.916 170.403  0.00  0.00    +0.000 A 
ATOM      3  N2  UNL     1     154.162 161.393 170.072  0.00  0.00    +0.000 NA
ATOM      4  C8  UNL     1     154.921 160.707 170.922  0.00  0.00    +0.000 A 
ATOM      5  C19 UNL     1     154.471 160.508 172.204  0.00  0.00    +0.000 A 
ATOM      6  C20 UNL     1     153.227 161.045 172.549  0.00  0.00    +0.000 A 
ATOM      7  C21 UNL     1     152.697 160.857 173.925  0.00  0.00    +0.000 C 
ATOM      8  N4  UNL     1     152.513 161.728 171.645  0.00  0.00    +0.000 NA
ATOM      9  C22 UNL     1     155.233 159.755 173.224  0.00  0.00    +0.000 C 
ATOM     10  H5  UNL     1     152.692 162.741 168.444  0.00  0.00    +0.000 HD
ENDROOT
BRANCH   4  11
ATOM     11  N3  UNL     1     156.197 160.170 170.547  0.00  0.00    +0.000 N 
ATOM     12  C9  UNL     1     157.438 160.867 170.767  0.00  0.00    +0.000 C 
ATOM     13  C10 UNL     1     157.229 162.357 170.812  0.00  0.00    +0.000 C 
ATOM     14  C11 UNL     1     158.476 160.480 169.767  0.00  0.00    +0.000 A 
ATOM     15  C12 UNL     1     158.530 159.134 169.458  0.00  0.00    +0.000 A 
ATOM     16  C13 UNL     1     157.564 158.204 170.132  0.00  0.00    +0.000 C 
ATOM     17  C14 UNL     1     156.201 158.863 169.921  0.00  0.00    +0.000 C 
ATOM     18  C15 UNL     1     159.467 158.718 168.545  0.00  0.00    +0.000 A 
ATOM     19  C16 UNL     1     160.327 159.649 167.961  0.00  0.00    +0.000 A 
ATOM     20  C17 UNL     1     160.274 160.995 168.268  0.00  0.00    +0.000 A 
ATOM     21  C18 UNL     1     159.330 161.401 169.186  0.00  0.00    +0.000 A 
ENDBRANCH   4  11
BRANCH   1  26
ATOM     22  F1  UNL     1     147.448 165.239 170.332  0.00  0.00    +0.000 F 
ATOM     23  C1  UNL     1     148.607 164.583 170.082  0.00  0.00    +0.000 A 
ATOM     24  C2  UNL     1     148.600 163.426 169.345  0.00  0.00    +0.000 A 
ATOM     25  C3  UNL     1     149.785 162.745 169.084  0.00  0.00    +0.000 A 
ATOM     26  C4  UNL     1     150.959 163.250 169.578  0.00  0.00    +0.000 A 
ATOM     27  C5  UNL     1     150.937 164.435 170.329  0.00  0.00    +0.000 A 
ATOM     28  C6  UNL     1     149.776 165.101 170.584  0.00  0.00    +0.000 A 
ENDBRANCH   1  26
TORSDOF 2
ENDMDL
