MODEL 1
REMARK VINA RESULT:      -5.5      0.000      0.000
REMARK  Name = ./3D_structures\o47_MMV000028_3D.pdb
REMARK  8 active torsions:
REMARK  status: ('A' for Active; 'I' for Inactive)
REMARK    1  A    between atoms: C1_1  and  O1_2
REMARK    2  A    between atoms: O1_2  and  C2_3
REMARK    3  A    between atoms: C4_5  and  C5_6
REMARK    4  A    between atoms: C5_6  and  C6_7
REMARK    5  A    between atoms: C11_16  and  O2_17
REMARK    6  A    between atoms: O2_17  and  C12_18
REMARK    7  A    between atoms: C13_19  and  O3_20
REMARK    8  A    between atoms: O3_20  and  C14_21
REMARK                            x       y       z     vdW  Elec       q    Type
REMARK                         _______ _______ _______ _____ _____    ______ ____
ROOT
ATOM      1  C5  UNL     1     147.922 165.325 165.918  0.00  0.00    +0.000 C 
ENDROOT
BRANCH   1   2
ATOM      2  C6  UNL     1     146.473 165.576 165.789  0.00  0.00    +0.000 A 
ATOM      3  C7  UNL     1     146.008 166.889 165.691  0.00  0.00    +0.000 A 
ATOM      4  N1  UNL     1     144.708 167.182 165.596  0.00  0.00    +0.000 NA
ATOM      5  C8  UNL     1     143.812 166.161 165.595  0.00  0.00    +0.000 A 
ATOM      6  N2  UNL     1     142.425 166.403 165.500  0.00  0.00    +0.000 N 
ATOM      7  N3  UNL     1     144.244 164.910 165.687  0.00  0.00    +0.000 NA
ATOM      8  C9  UNL     1     145.551 164.579 165.785  0.00  0.00    +0.000 A 
ATOM      9  N4  UNL     1     145.900 163.210 165.862  0.00  0.00    +0.000 N 
ATOM     10  H8  UNL     1     141.776 165.866 166.105  0.00  0.00    +0.000 HD
ATOM     11  H9  UNL     1     142.046 167.104 164.839  0.00  0.00    +0.000 HD
ATOM     12  H10 UNL     1     145.254 162.534 166.349  0.00  0.00    +0.000 HD
ATOM     13  H11 UNL     1     146.763 162.825 165.464  0.00  0.00    +0.000 HD
ENDBRANCH   1   2
BRANCH   1  16
ATOM     14  C2  UNL     1     147.951 165.118 169.682  0.00  0.00    +0.000 A 
ATOM     15  C3  UNL     1     147.598 164.994 168.359  0.00  0.00    +0.000 A 
ATOM     16  C4  UNL     1     148.387 165.522 167.327  0.00  0.00    +0.000 A 
ATOM     17  C10 UNL     1     149.531 166.172 167.690  0.00  0.00    +0.000 A 
ATOM     18  C11 UNL     1     149.934 166.327 169.007  0.00  0.00    +0.000 A 
ATOM     19  C13 UNL     1     149.130 165.791 169.986  0.00  0.00    +0.000 A 
BRANCH  14  21
ATOM     20  C1  UNL     1     146.161 163.660 170.338  0.00  0.00    +0.000 C 
ATOM     21  O1  UNL     1     147.163 164.593 170.694  0.00  0.00    +0.000 OA
ENDBRANCH  14  21
BRANCH  18  22
ATOM     22  O2  UNL     1     151.081 166.978 169.384  0.00  0.00    +0.000 OA
ATOM     23  C12 UNL     1     151.341 168.338 169.410  0.00  0.00    +0.000 C 
ENDBRANCH  18  22
BRANCH  19  24
ATOM     24  O3  UNL     1     149.514 165.933 171.314  0.00  0.00    +0.000 OA
ATOM     25  C14 UNL     1     150.526 165.005 171.739  0.00  0.00    +0.000 C 
ENDBRANCH  19  24
ENDBRANCH   1  16
TORSDOF 5
ENDMDL
MODEL 2
REMARK VINA RESULT:      -5.2     10.692     12.598
REMARK  Name = ./3D_structures\o47_MMV000028_3D.pdb
REMARK  8 active torsions:
REMARK  status: ('A' for Active; 'I' for Inactive)
REMARK    1  A    between atoms: C1_1  and  O1_2
REMARK    2  A    between atoms: O1_2  and  C2_3
REMARK    3  A    between atoms: C4_5  and  C5_6
REMARK    4  A    between atoms: C5_6  and  C6_7
REMARK    5  A    between atoms: C11_16  and  O2_17
REMARK    6  A    between atoms: O2_17  and  C12_18
REMARK    7  A    between atoms: C13_19  and  O3_20
REMARK    8  A    between atoms: O3_20  and  C14_21
REMARK                            x       y       z     vdW  Elec       q    Type
REMARK                         _______ _______ _______ _____ _____    ______ ____
ROOT
ATOM      1  C5  UNL     1     148.012 151.718 169.587  0.00  0.00    +0.000 C 
ENDROOT
BRANCH   1   2
ATOM      2  C6  UNL     1     147.857 151.706 168.119  0.00  0.00    +0.000 A 
ATOM      3  C7  UNL     1     146.576 151.663 167.563  0.00  0.00    +0.000 A 
ATOM      4  N1  UNL     1     146.370 151.627 166.244  0.00  0.00    +0.000 NA
ATOM      5  C8  UNL     1     147.449 151.634 165.419  0.00  0.00    +0.000 A 
ATOM      6  N2  UNL     1     147.301 151.594 164.016  0.00  0.00    +0.000 N 
ATOM      7  N3  UNL     1     148.670 151.675 165.938  0.00  0.00    +0.000 NA
ATOM      8  C9  UNL     1     148.913 151.712 167.267  0.00  0.00    +0.000 A 
ATOM      9  N4  UNL     1     150.256 151.772 167.709  0.00  0.00    +0.000 N 
ATOM     10  H8  UNL     1     147.924 150.982 163.459  0.00  0.00    +0.000 HD
ATOM     11  H9  UNL     1     146.582 152.165 163.537  0.00  0.00    +0.000 HD
ATOM     12  H10 UNL     1     151.010 151.288 167.153  0.00  0.00    +0.000 HD
ATOM     13  H11 UNL     1     150.549 152.269 168.557  0.00  0.00    +0.000 HD
ENDBRANCH   1   2
BRANCH   1  16
ATOM     14  C2  UNL     1     149.833 154.393 171.522  0.00  0.00    +0.000 A 
ATOM     15  C3  UNL     1     149.423 153.182 171.016  0.00  0.00    +0.000 A 
ATOM     16  C4  UNL     1     148.377 153.081 170.086  0.00  0.00    +0.000 A 
ATOM     17  C10 UNL     1     147.775 154.243 169.700  0.00  0.00    +0.000 A 
ATOM     18  C11 UNL     1     148.147 155.490 170.178  0.00  0.00    +0.000 A 
ATOM     19  C13 UNL     1     149.179 155.541 171.087  0.00  0.00    +0.000 A 
BRANCH  14  21
ATOM     20  C1  UNL     1     150.561 154.272 173.806  0.00  0.00    +0.000 C 
ATOM     21  O1  UNL     1     150.867 154.481 172.440  0.00  0.00    +0.000 OA
ENDBRANCH  14  21
BRANCH  18  22
ATOM     22  O2  UNL     1     147.550 156.664 169.797  0.00  0.00    +0.000 OA
ATOM     23  C12 UNL     1     147.164 157.073 168.530  0.00  0.00    +0.000 C 
ENDBRANCH  18  22
BRANCH  19  24
ATOM     24  O3  UNL     1     149.570 156.780 171.579  0.00  0.00    +0.000 OA
ATOM     25  C14 UNL     1     150.606 157.420 170.814  0.00  0.00    +0.000 C 
ENDBRANCH  19  24
ENDBRANCH   1  16
TORSDOF 5
ENDMDL
MODEL 3
REMARK VINA RESULT:      -5.2      4.563      7.209
REMARK  Name = ./3D_structures\o47_MMV000028_3D.pdb
REMARK  8 active torsions:
REMARK  status: ('A' for Active; 'I' for Inactive)
REMARK    1  A    between atoms: C1_1  and  O1_2
REMARK    2  A    between atoms: O1_2  and  C2_3
REMARK    3  A    between atoms: C4_5  and  C5_6
REMARK    4  A    between atoms: C5_6  and  C6_7
REMARK    5  A    between atoms: C11_16  and  O2_17
REMARK    6  A    between atoms: O2_17  and  C12_18
REMARK    7  A    between atoms: C13_19  and  O3_20
REMARK    8  A    between atoms: O3_20  and  C14_21
REMARK                            x       y       z     vdW  Elec       q    Type
REMARK                         _______ _______ _______ _____ _____    ______ ____
ROOT
ATOM      1  C5  UNL     1     144.817 164.374 166.681  0.00  0.00    +0.000 C 
ENDROOT
BRANCH   1   2
ATOM      2  C6  UNL     1     146.182 164.926 166.572  0.00  0.00    +0.000 A 
ATOM      3  C7  UNL     1     147.272 164.150 166.970  0.00  0.00    +0.000 A 
ATOM      4  N1  UNL     1     148.528 164.601 166.917  0.00  0.00    +0.000 NA
ATOM      5  C8  UNL     1     148.746 165.860 166.460  0.00  0.00    +0.000 A 
ATOM      6  N2  UNL     1     150.049 166.399 166.382  0.00  0.00    +0.000 N 
ATOM      7  N3  UNL     1     147.717 166.606 166.079  0.00  0.00    +0.000 NA
ATOM      8  C9  UNL     1     146.434 166.181 166.119  0.00  0.00    +0.000 A 
ATOM      9  N4  UNL     1     145.415 167.055 165.672  0.00  0.00    +0.000 N 
ATOM     10  H8  UNL     1     150.210 167.376 166.685  0.00  0.00    +0.000 HD
ATOM     11  H9  UNL     1     150.842 165.834 166.029  0.00  0.00    +0.000 HD
ATOM     12  H10 UNL     1     145.522 168.094 165.812  0.00  0.00    +0.000 HD
ATOM     13  H11 UNL     1     144.559 166.734 165.208  0.00  0.00    +0.000 HD
ENDBRANCH   1   2
BRANCH   1  16
ATOM     14  C2  UNL     1     144.319 160.780 165.657  0.00  0.00    +0.000 A 
ATOM     15  C3  UNL     1     144.498 161.927 166.395  0.00  0.00    +0.000 A 
ATOM     16  C4  UNL     1     144.637 163.184 165.790  0.00  0.00    +0.000 A 
ATOM     17  C10 UNL     1     144.589 163.227 164.427  0.00  0.00    +0.000 A 
ATOM     18  C11 UNL     1     144.412 162.104 163.635  0.00  0.00    +0.000 A 
ATOM     19  C13 UNL     1     144.278 160.891 164.271  0.00  0.00    +0.000 A 
BRANCH  14  21
ATOM     20  C1  UNL     1     145.296 159.021 166.965  0.00  0.00    +0.000 C 
ATOM     21  O1  UNL     1     144.183 159.542 166.264  0.00  0.00    +0.000 OA
ENDBRANCH  14  21
BRANCH  18  22
ATOM     22  O2  UNL     1     144.361 162.135 162.264  0.00  0.00    +0.000 OA
ATOM     23  C12 UNL     1     143.315 162.518 161.441  0.00  0.00    +0.000 C 
ENDBRANCH  18  22
BRANCH  19  24
ATOM     24  O3  UNL     1     144.098 159.751 163.497  0.00  0.00    +0.000 OA
ATOM     25  C14 UNL     1     145.320 159.084 163.136  0.00  0.00    +0.000 C 
ENDBRANCH  19  24
ENDBRANCH   1  16
TORSDOF 5
ENDMDL
MODEL 4
REMARK VINA RESULT:      -5.1      3.681      5.068
REMARK  Name = ./3D_structures\o47_MMV000028_3D.pdb
REMARK  8 active torsions:
REMARK  status: ('A' for Active; 'I' for Inactive)
REMARK    1  A    between atoms: C1_1  and  O1_2
REMARK    2  A    between atoms: O1_2  and  C2_3
REMARK    3  A    between atoms: C4_5  and  C5_6
REMARK    4  A    between atoms: C5_6  and  C6_7
REMARK    5  A    between atoms: C11_16  and  O2_17
REMARK    6  A    between atoms: O2_17  and  C12_18
REMARK    7  A    between atoms: C13_19  and  O3_20
REMARK    8  A    between atoms: O3_20  and  C14_21
REMARK                            x       y       z     vdW  Elec       q    Type
REMARK                         _______ _______ _______ _____ _____    ______ ____
ROOT
ATOM      1  C5  UNL     1     148.259 165.633 167.637  0.00  0.00    +0.000 C 
ENDROOT
BRANCH   1   2
ATOM      2  C6  UNL     1     146.962 164.931 167.708  0.00  0.00    +0.000 A 
ATOM      3  C7  UNL     1     146.416 164.375 166.549  0.00  0.00    +0.000 A 
ATOM      4  N1  UNL     1     145.237 163.748 166.544  0.00  0.00    +0.000 NA
ATOM      5  C8  UNL     1     144.550 163.650 167.711  0.00  0.00    +0.000 A 
ATOM      6  N2  UNL     1     143.297 163.002 167.774  0.00  0.00    +0.000 N 
ATOM      7  N3  UNL     1     145.060 164.174 168.818  0.00  0.00    +0.000 NA
ATOM      8  C9  UNL     1     146.250 164.815 168.858  0.00  0.00    +0.000 A 
ATOM      9  N4  UNL     1     146.706 165.321 170.098  0.00  0.00    +0.000 N 
ATOM     10  H8  UNL     1     142.533 163.432 168.326  0.00  0.00    +0.000 HD
ATOM     11  H9  UNL     1     143.130 162.109 167.278  0.00  0.00    +0.000 HD
ATOM     12  H10 UNL     1     146.009 165.677 170.804  0.00  0.00    +0.000 HD
ATOM     13  H11 UNL     1     147.696 165.364 170.360  0.00  0.00    +0.000 HD
ENDBRANCH   1   2
BRANCH   1  16
ATOM     14  C2  UNL     1     151.100 164.257 165.576  0.00  0.00    +0.000 A 
ATOM     15  C3  UNL     1     150.070 165.040 166.043  0.00  0.00    +0.000 A 
ATOM     16  C4  UNL     1     149.356 164.711 167.205  0.00  0.00    +0.000 A 
ATOM     17  C10 UNL     1     149.725 163.573 167.860  0.00  0.00    +0.000 A 
ATOM     18  C11 UNL     1     150.754 162.748 167.435  0.00  0.00    +0.000 A 
ATOM     19  C13 UNL     1     151.428 163.110 166.291  0.00  0.00    +0.000 A 
BRANCH  14  21
ATOM     20  C1  UNL     1     152.869 165.508 164.544  0.00  0.00    +0.000 C 
ATOM     21  O1  UNL     1     151.799 164.590 164.427  0.00  0.00    +0.000 OA
ENDBRANCH  14  21
BRANCH  18  22
ATOM     22  O2  UNL     1     151.134 161.602 168.086  0.00  0.00    +0.000 OA
ATOM     23  C12 UNL     1     150.339 160.611 168.638  0.00  0.00    +0.000 C 
ENDBRANCH  18  22
BRANCH  19  24
ATOM     24  O3  UNL     1     152.464 162.298 165.846  0.00  0.00    +0.000 OA
ATOM     25  C14 UNL     1     152.059 161.280 164.914  0.00  0.00    +0.000 C 
ENDBRANCH  19  24
ENDBRANCH   1  16
TORSDOF 5
ENDMDL
MODEL 5
REMARK VINA RESULT:      -5.1      1.842      2.669
REMARK  Name = ./3D_structures\o47_MMV000028_3D.pdb
REMARK  8 active torsions:
REMARK  status: ('A' for Active; 'I' for Inactive)
REMARK    1  A    between atoms: C1_1  and  O1_2
REMARK    2  A    between atoms: O1_2  and  C2_3
REMARK    3  A    between atoms: C4_5  and  C5_6
REMARK    4  A    between atoms: C5_6  and  C6_7
REMARK    5  A    between atoms: C11_16  and  O2_17
REMARK    6  A    between atoms: O2_17  and  C12_18
REMARK    7  A    between atoms: C13_19  and  O3_20
REMARK    8  A    between atoms: O3_20  and  C14_21
REMARK                            x       y       z     vdW  Elec       q    Type
REMARK                         _______ _______ _______ _____ _____    ______ ____
ROOT
ATOM      1  C5  UNL     1     149.029 164.798 167.758  0.00  0.00    +0.000 C 
ENDROOT
BRANCH   1   2
ATOM      2  C6  UNL     1     147.849 165.460 167.167  0.00  0.00    +0.000 A 
ATOM      3  C7  UNL     1     148.024 166.373 166.125  0.00  0.00    +0.000 A 
ATOM      4  N1  UNL     1     146.999 167.022 165.564  0.00  0.00    +0.000 NA
ATOM      5  C8  UNL     1     145.747 166.781 166.029  0.00  0.00    +0.000 A 
ATOM      6  N2  UNL     1     144.622 167.435 165.483  0.00  0.00    +0.000 N 
ATOM      7  N3  UNL     1     145.571 165.914 167.018  0.00  0.00    +0.000 NA
ATOM      8  C9  UNL     1     146.584 165.241 167.608  0.00  0.00    +0.000 A 
ATOM      9  N4  UNL     1     146.280 164.328 168.645  0.00  0.00    +0.000 N 
ATOM     10  H8  UNL     1     143.888 167.796 166.119  0.00  0.00    +0.000 HD
ATOM     11  H9  UNL     1     144.519 167.560 164.460  0.00  0.00    +0.000 HD
ATOM     12  H10 UNL     1     145.469 164.523 169.290  0.00  0.00    +0.000 HD
ATOM     13  H11 UNL     1     146.810 163.467 168.812  0.00  0.00    +0.000 HD
ENDBRANCH   1   2
BRANCH   1  16
ATOM     14  C2  UNL     1     150.254 165.843 171.167  0.00  0.00    +0.000 A 
ATOM     15  C3  UNL     1     149.690 165.139 170.128  0.00  0.00    +0.000 A 
ATOM     16  C4  UNL     1     149.656 165.645 168.821  0.00  0.00    +0.000 A 
ATOM     17  C10 UNL     1     150.208 166.876 168.616  0.00  0.00    +0.000 A 
ATOM     18  C11 UNL     1     150.788 167.629 169.625  0.00  0.00    +0.000 A 
ATOM     19  C13 UNL     1     150.801 167.092 170.892  0.00  0.00    +0.000 A 
BRANCH  14  21
ATOM     20  C1  UNL     1     151.291 164.394 172.776  0.00  0.00    +0.000 C 
ATOM     21  O1  UNL     1     150.283 165.334 172.455  0.00  0.00    +0.000 OA
ENDBRANCH  14  21
BRANCH  18  22
ATOM     22  O2  UNL     1     151.347 168.866 169.431  0.00  0.00    +0.000 OA
ATOM     23  C12 UNL     1     150.715 170.083 169.229  0.00  0.00    +0.000 C 
ENDBRANCH  18  22
BRANCH  19  24
ATOM     24  O3  UNL     1     151.379 167.828 171.919  0.00  0.00    +0.000 OA
ATOM     25  C14 UNL     1     152.801 167.655 172.043  0.00  0.00    +0.000 C 
ENDBRANCH  19  24
ENDBRANCH   1  16
TORSDOF 5
ENDMDL
MODEL 6
REMARK VINA RESULT:      -5.1      3.660      4.420
REMARK  Name = ./3D_structures\o47_MMV000028_3D.pdb
REMARK  8 active torsions:
REMARK  status: ('A' for Active; 'I' for Inactive)
REMARK    1  A    between atoms: C1_1  and  O1_2
REMARK    2  A    between atoms: O1_2  and  C2_3
REMARK    3  A    between atoms: C4_5  and  C5_6
REMARK    4  A    between atoms: C5_6  and  C6_7
REMARK    5  A    between atoms: C11_16  and  O2_17
REMARK    6  A    between atoms: O2_17  and  C12_18
REMARK    7  A    between atoms: C13_19  and  O3_20
REMARK    8  A    between atoms: O3_20  and  C14_21
REMARK                            x       y       z     vdW  Elec       q    Type
REMARK                         _______ _______ _______ _____ _____    ______ ____
ROOT
ATOM      1  C5  UNL     1     148.238 165.756 167.530  0.00  0.00    +0.000 C 
ENDROOT
BRANCH   1   2
ATOM      2  C6  UNL     1     146.958 165.026 167.630  0.00  0.00    +0.000 A 
ATOM      3  C7  UNL     1     146.377 164.495 166.477  0.00  0.00    +0.000 A 
ATOM      4  N1  UNL     1     145.210 163.845 166.499  0.00  0.00    +0.000 NA
ATOM      5  C8  UNL     1     144.571 163.700 167.688  0.00  0.00    +0.000 A 
ATOM      6  N2  UNL     1     143.334 163.027 167.779  0.00  0.00    +0.000 N 
ATOM      7  N3  UNL     1     145.115 164.201 168.789  0.00  0.00    +0.000 NA
ATOM      8  C9  UNL     1     146.293 164.863 168.803  0.00  0.00    +0.000 A 
ATOM      9  N4  UNL     1     146.789 165.342 170.039  0.00  0.00    +0.000 N 
ATOM     10  H8  UNL     1     142.584 163.426 168.373  0.00  0.00    +0.000 HD
ATOM     11  H9  UNL     1     143.164 162.145 167.264  0.00  0.00    +0.000 HD
ATOM     12  H10 UNL     1     146.113 165.664 170.781  0.00  0.00    +0.000 HD
ATOM     13  H11 UNL     1     147.788 165.396 170.263  0.00  0.00    +0.000 HD
ENDBRANCH   1   2
BRANCH   1  16
ATOM     14  C2  UNL     1     150.627 162.840 167.472  0.00  0.00    +0.000 A 
ATOM     15  C3  UNL     1     149.637 163.725 167.831  0.00  0.00    +0.000 A 
ATOM     16  C4  UNL     1     149.341 164.860 167.061  0.00  0.00    +0.000 A 
ATOM     17  C10 UNL     1     150.081 165.054 165.931  0.00  0.00    +0.000 A 
ATOM     18  C11 UNL     1     151.090 164.196 165.523  0.00  0.00    +0.000 A 
ATOM     19  C13 UNL     1     151.345 163.095 166.308  0.00  0.00    +0.000 A 
BRANCH  14  21
ATOM     20  C1  UNL     1     149.916 160.726 168.357  0.00  0.00    +0.000 C 
ATOM     21  O1  UNL     1     150.912 161.723 168.240  0.00  0.00    +0.000 OA
ENDBRANCH  14  21
BRANCH  18  22
ATOM     22  O2  UNL     1     151.840 164.382 164.390  0.00  0.00    +0.000 OA
ATOM     23  C12 UNL     1     153.037 165.063 164.241  0.00  0.00    +0.000 C 
ENDBRANCH  18  22
BRANCH  19  24
ATOM     24  O3  UNL     1     152.351 162.220 165.919  0.00  0.00    +0.000 OA
ATOM     25  C14 UNL     1     151.911 161.160 165.053  0.00  0.00    +0.000 C 
ENDBRANCH  19  24
ENDBRANCH   1  16
TORSDOF 5
ENDMDL
MODEL 7
REMARK VINA RESULT:      -5.0      8.402     10.412
REMARK  Name = ./3D_structures\o47_MMV000028_3D.pdb
REMARK  8 active torsions:
REMARK  status: ('A' for Active; 'I' for Inactive)
REMARK    1  A    between atoms: C1_1  and  O1_2
REMARK    2  A    between atoms: O1_2  and  C2_3
REMARK    3  A    between atoms: C4_5  and  C5_6
REMARK    4  A    between atoms: C5_6  and  C6_7
REMARK    5  A    between atoms: C11_16  and  O2_17
REMARK    6  A    between atoms: O2_17  and  C12_18
REMARK    7  A    between atoms: C13_19  and  O3_20
REMARK    8  A    between atoms: O3_20  and  C14_21
REMARK                            x       y       z     vdW  Elec       q    Type
REMARK                         _______ _______ _______ _____ _____    ______ ____
ROOT
ATOM      1  C5  UNL     1     153.801 159.146 169.631  0.00  0.00    +0.000 C 
ENDROOT
BRANCH   1   2
ATOM      2  C6  UNL     1     154.424 158.450 168.486  0.00  0.00    +0.000 A 
ATOM      3  C7  UNL     1     154.172 158.901 167.189  0.00  0.00    +0.000 A 
ATOM      4  N1  UNL     1     154.686 158.301 166.112  0.00  0.00    +0.000 NA
ATOM      5  C8  UNL     1     155.481 157.215 166.292  0.00  0.00    +0.000 A 
ATOM      6  N2  UNL     1     156.053 156.534 165.196  0.00  0.00    +0.000 N 
ATOM      7  N3  UNL     1     155.726 156.780 167.521  0.00  0.00    +0.000 NA
ATOM      8  C9  UNL     1     155.222 157.363 168.632  0.00  0.00    +0.000 A 
ATOM      9  N4  UNL     1     155.563 156.824 169.895  0.00  0.00    +0.000 N 
ATOM     10  H8  UNL     1     156.057 155.498 165.192  0.00  0.00    +0.000 HD
ATOM     11  H9  UNL     1     156.466 157.051 164.400  0.00  0.00    +0.000 HD
ATOM     12  H10 UNL     1     155.718 155.786 169.994  0.00  0.00    +0.000 HD
ATOM     13  H11 UNL     1     155.673 157.393 170.740  0.00  0.00    +0.000 HD
ENDBRANCH   1   2
BRANCH   1  16
ATOM     14  C2  UNL     1     150.505 157.416 170.223  0.00  0.00    +0.000 A 
ATOM     15  C3  UNL     1     151.848 157.701 170.149  0.00  0.00    +0.000 A 
ATOM     16  C4  UNL     1     152.321 158.928 169.662  0.00  0.00    +0.000 A 
ATOM     17  C10 UNL     1     151.387 159.839 169.262  0.00  0.00    +0.000 A 
ATOM     18  C11 UNL     1     150.022 159.604 169.314  0.00  0.00    +0.000 A 
ATOM     19  C13 UNL     1     149.604 158.387 169.800  0.00  0.00    +0.000 A 
BRANCH  14  21
ATOM     20  C1  UNL     1     149.942 156.037 172.106  0.00  0.00    +0.000 C 
ATOM     21  O1  UNL     1     150.049 156.199 170.705  0.00  0.00    +0.000 OA
ENDBRANCH  14  21
BRANCH  18  22
ATOM     22  O2  UNL     1     149.074 160.512 168.915  0.00  0.00    +0.000 OA
ATOM     23  C12 UNL     1     148.844 161.029 167.650  0.00  0.00    +0.000 C 
ENDBRANCH  18  22
BRANCH  19  24
ATOM     24  O3  UNL     1     148.240 158.130 169.863  0.00  0.00    +0.000 OA
ATOM     25  C14 UNL     1     147.693 157.544 168.669  0.00  0.00    +0.000 C 
ENDBRANCH  19  24
ENDBRANCH   1  16
TORSDOF 5
ENDMDL
MODEL 8
REMARK VINA RESULT:      -5.0      1.854      3.476
REMARK  Name = ./3D_structures\o47_MMV000028_3D.pdb
REMARK  8 active torsions:
REMARK  status: ('A' for Active; 'I' for Inactive)
REMARK    1  A    between atoms: C1_1  and  O1_2
REMARK    2  A    between atoms: O1_2  and  C2_3
REMARK    3  A    between atoms: C4_5  and  C5_6
REMARK    4  A    between atoms: C5_6  and  C6_7
REMARK    5  A    between atoms: C11_16  and  O2_17
REMARK    6  A    between atoms: O2_17  and  C12_18
REMARK    7  A    between atoms: C13_19  and  O3_20
REMARK    8  A    between atoms: O3_20  and  C14_21
REMARK                            x       y       z     vdW  Elec       q    Type
REMARK                         _______ _______ _______ _____ _____    ______ ____
ROOT
ATOM      1  C5  UNL     1     149.008 164.679 167.700  0.00  0.00    +0.000 C 
ENDROOT
BRANCH   1   2
ATOM      2  C6  UNL     1     147.855 165.412 167.139  0.00  0.00    +0.000 A 
ATOM      3  C7  UNL     1     148.064 166.349 166.125  0.00  0.00    +0.000 A 
ATOM      4  N1  UNL     1     147.066 167.060 165.593  0.00  0.00    +0.000 NA
ATOM      5  C8  UNL     1     145.807 166.859 166.059  0.00  0.00    +0.000 A 
ATOM      6  N2  UNL     1     144.709 167.580 165.542  0.00  0.00    +0.000 N 
ATOM      7  N3  UNL     1     145.598 165.970 167.021  0.00  0.00    +0.000 NA
ATOM      8  C9  UNL     1     146.585 165.235 167.582  0.00  0.00    +0.000 A 
ATOM      9  N4  UNL     1     146.246 164.302 168.591  0.00  0.00    +0.000 N 
ATOM     10  H8  UNL     1     143.996 167.952 166.195  0.00  0.00    +0.000 HD
ATOM     11  H9  UNL     1     144.605 167.743 164.524  0.00  0.00    +0.000 HD
ATOM     12  H10 UNL     1     145.448 164.512 169.247  0.00  0.00    +0.000 HD
ATOM     13  H11 UNL     1     146.739 163.414 168.727  0.00  0.00    +0.000 HD
ENDBRANCH   1   2
BRANCH   1  16
ATOM     14  C2  UNL     1     150.930 167.432 169.414  0.00  0.00    +0.000 A 
ATOM     15  C3  UNL     1     150.310 166.651 168.467  0.00  0.00    +0.000 A 
ATOM     16  C4  UNL     1     149.663 165.453 168.802  0.00  0.00    +0.000 A 
ATOM     17  C10 UNL     1     149.672 165.088 170.116  0.00  0.00    +0.000 A 
ATOM     18  C11 UNL     1     150.281 165.836 171.112  0.00  0.00    +0.000 A 
ATOM     19  C13 UNL     1     150.903 167.004 170.738  0.00  0.00    +0.000 A 
BRANCH  14  21
ATOM     20  C1  UNL     1     150.781 169.784 168.959  0.00  0.00    +0.000 C 
ATOM     21  O1  UNL     1     151.568 168.614 169.073  0.00  0.00    +0.000 OA
ENDBRANCH  14  21
BRANCH  18  22
ATOM     22  O2  UNL     1     150.296 165.479 172.436  0.00  0.00    +0.000 OA
ATOM     23  C12 UNL     1     151.205 164.681 173.111  0.00  0.00    +0.000 C 
ENDBRANCH  18  22
BRANCH  19  24
ATOM     24  O3  UNL     1     151.520 167.772 171.718  0.00  0.00    +0.000 OA
ATOM     25  C14 UNL     1     150.663 168.752 172.329  0.00  0.00    +0.000 C 
ENDBRANCH  19  24
ENDBRANCH   1  16
TORSDOF 5
ENDMDL
MODEL 9
REMARK VINA RESULT:      -5.0      4.204      6.100
REMARK  Name = ./3D_structures\o47_MMV000028_3D.pdb
REMARK  8 active torsions:
REMARK  status: ('A' for Active; 'I' for Inactive)
REMARK    1  A    between atoms: C1_1  and  O1_2
REMARK    2  A    between atoms: O1_2  and  C2_3
REMARK    3  A    between atoms: C4_5  and  C5_6
REMARK    4  A    between atoms: C5_6  and  C6_7
REMARK    5  A    between atoms: C11_16  and  O2_17
REMARK    6  A    between atoms: O2_17  and  C12_18
REMARK    7  A    between atoms: C13_19  and  O3_20
REMARK    8  A    between atoms: O3_20  and  C14_21
REMARK                            x       y       z     vdW  Elec       q    Type
REMARK                         _______ _______ _______ _____ _____    ______ ____
ROOT
ATOM      1  C5  UNL     1     149.832 164.261 167.797  0.00  0.00    +0.000 C 
ENDROOT
BRANCH   1   2
ATOM      2  C6  UNL     1     149.933 165.307 168.836  0.00  0.00    +0.000 A 
ATOM      3  C7  UNL     1     149.359 165.087 170.090  0.00  0.00    +0.000 A 
ATOM      4  N1  UNL     1     149.397 166.002 171.063  0.00  0.00    +0.000 NA
ATOM      5  C8  UNL     1     150.016 167.185 170.816  0.00  0.00    +0.000 A 
ATOM      6  N2  UNL     1     150.087 168.195 171.800  0.00  0.00    +0.000 N 
ATOM      7  N3  UNL     1     150.564 167.403 169.628  0.00  0.00    +0.000 NA
ATOM      8  C9  UNL     1     150.545 166.500 168.622  0.00  0.00    +0.000 A 
ATOM      9  N4  UNL     1     151.176 166.831 167.400  0.00  0.00    +0.000 N 
ATOM     10  H8  UNL     1     149.918 169.180 171.526  0.00  0.00    +0.000 HD
ATOM     11  H9  UNL     1     150.305 167.968 172.787  0.00  0.00    +0.000 HD
ATOM     12  H10 UNL     1     151.180 167.832 167.071  0.00  0.00    +0.000 HD
ATOM     13  H11 UNL     1     151.642 166.142 166.801  0.00  0.00    +0.000 HD
ENDBRANCH   1   2
BRANCH   1  16
ATOM     14  C2  UNL     1     146.427 162.869 166.977  0.00  0.00    +0.000 A 
ATOM     15  C3  UNL     1     147.708 163.021 167.453  0.00  0.00    +0.000 A 
ATOM     16  C4  UNL     1     148.450 164.189 167.228  0.00  0.00    +0.000 A 
ATOM     17  C10 UNL     1     147.846 165.180 166.511  0.00  0.00    +0.000 A 
ATOM     18  C11 UNL     1     146.558 165.080 166.006  0.00  0.00    +0.000 A 
ATOM     19  C13 UNL     1     145.868 163.917 166.253  0.00  0.00    +0.000 A 
BRANCH  14  21
ATOM     20  C1  UNL     1     145.364 161.389 168.540  0.00  0.00    +0.000 C 
ATOM     21  O1  UNL     1     145.702 161.710 167.204  0.00  0.00    +0.000 OA
ENDBRANCH  14  21
BRANCH  18  22
ATOM     22  O2  UNL     1     145.941 166.070 165.284  0.00  0.00    +0.000 OA
ATOM     23  C12 UNL     1     145.398 167.263 165.732  0.00  0.00    +0.000 C 
ENDBRANCH  18  22
BRANCH  19  24
ATOM     24  O3  UNL     1     144.575 163.794 165.758  0.00  0.00    +0.000 OA
ATOM     25  C14 UNL     1     144.493 163.161 164.469  0.00  0.00    +0.000 C 
ENDBRANCH  19  24
ENDBRANCH   1  16
TORSDOF 5
ENDMDL
