MODEL 1
REMARK VINA RESULT:      -5.5      0.000      0.000
REMARK  Name = ./3D_structures\o49_MMV1593535_3D.pdb
REMARK  8 active torsions:
REMARK  status: ('A' for Active; 'I' for Inactive)
REMARK    1  A    between atoms: C1_1  and  C2_2
REMARK    2  A    between atoms: C2_2  and  C3_3
REMARK    3  A    between atoms: C3_3  and  C4_4
REMARK    4  A    between atoms: C4_4  and  C5_5
REMARK    5  A    between atoms: C5_5  and  C6_6
REMARK    6  A    between atoms: C6_6  and  C7_7
REMARK    7  A    between atoms: C11_11  and  O1_12
REMARK    8  A    between atoms: C16_18  and  O3_19
REMARK                            x       y       z     vdW  Elec       q    Type
REMARK                         _______ _______ _______ _____ _____    ______ ____
ROOT
ATOM      1  C7  UNL     1     156.779 158.125 170.815  0.00  0.00    +0.000 C 
ATOM      2  C8  UNL     1     156.312 157.802 169.414  0.00  0.00    +0.000 A 
ATOM      3  C9  UNL     1     157.121 156.969 168.642  0.00  0.00    +0.000 A 
ATOM      4  C10 UNL     1     156.795 156.648 167.333  0.00  0.00    +0.000 A 
ATOM      5  C11 UNL     1     155.657 157.149 166.762  0.00  0.00    +0.000 A 
ATOM      6  C12 UNL     1     154.859 157.962 167.511  0.00  0.00    +0.000 A 
ATOM      7  C13 UNL     1     155.194 158.281 168.831  0.00  0.00    +0.000 A 
ATOM      8  O2  UNL     1     154.345 159.094 169.520  0.00  0.00    +0.000 OA
ATOM      9  C14 UNL     1     154.649 159.424 170.854  0.00  0.00    +0.000 A 
ATOM     10  C15 UNL     1     153.693 160.250 171.441  0.00  0.00    +0.000 A 
ATOM     11  C16 UNL     1     153.880 160.634 172.758  0.00  0.00    +0.000 A 
ATOM     12  C17 UNL     1     154.987 160.187 173.412  0.00  0.00    +0.000 A 
ATOM     13  C18 UNL     1     155.933 159.364 172.813  0.00  0.00    +0.000 A 
ATOM     14  C19 UNL     1     155.773 158.969 171.507  0.00  0.00    +0.000 A 
ENDROOT
BRANCH   5  15
ATOM     15  O1  UNL     1     155.367 156.801 165.441  0.00  0.00    +0.000 OA
ATOM     16  H17 UNL     1     155.320 157.592 164.784  0.00  0.00    +0.000 HD
ENDBRANCH   5  15
BRANCH  11  17
ATOM     17  O3  UNL     1     152.922 161.457 173.332  0.00  0.00    +0.000 OA
ATOM     18  H20 UNL     1     152.713 162.373 172.965  0.00  0.00    +0.000 HD
ENDBRANCH  11  17
BRANCH   1  19
ATOM     19  C6  UNL     1     158.104 158.808 170.598  0.00  0.00    +0.000 C 
BRANCH  19  20
ATOM     20  C5  UNL     1     158.121 160.140 169.983  0.00  0.00    +0.000 C 
BRANCH  20  21
ATOM     21  C4  UNL     1     159.184 160.260 168.895  0.00  0.00    +0.000 C 
BRANCH  21  22
ATOM     22  C3  UNL     1     158.579 160.126 167.501  0.00  0.00    +0.000 C 
BRANCH  22  24
ATOM     23  C1  UNL     1     160.417 158.425 167.671  0.00  0.00    +0.000 C 
ATOM     24  C2  UNL     1     159.499 159.189 166.739  0.00  0.00    +0.000 C 
ENDBRANCH  22  24
ENDBRANCH  21  22
ENDBRANCH  20  21
ENDBRANCH  19  20
ENDBRANCH   1  19
TORSDOF 7
ENDMDL
MODEL 2
REMARK VINA RESULT:      -5.5      2.498      4.357
REMARK  Name = ./3D_structures\o49_MMV1593535_3D.pdb
REMARK  8 active torsions:
REMARK  status: ('A' for Active; 'I' for Inactive)
REMARK    1  A    between atoms: C1_1  and  C2_2
REMARK    2  A    between atoms: C2_2  and  C3_3
REMARK    3  A    between atoms: C3_3  and  C4_4
REMARK    4  A    between atoms: C4_4  and  C5_5
REMARK    5  A    between atoms: C5_5  and  C6_6
REMARK    6  A    between atoms: C6_6  and  C7_7
REMARK    7  A    between atoms: C11_11  and  O1_12
REMARK    8  A    between atoms: C16_18  and  O3_19
REMARK                            x       y       z     vdW  Elec       q    Type
REMARK                         _______ _______ _______ _____ _____    ______ ____
ROOT
ATOM      1  C7  UNL     1     159.253 158.219 166.982  0.00  0.00    +0.000 C 
ATOM      2  C8  UNL     1     158.611 157.302 165.966  0.00  0.00    +0.000 A 
ATOM      3  C9  UNL     1     159.209 157.215 164.709  0.00  0.00    +0.000 A 
ATOM      4  C10 UNL     1     158.670 156.431 163.699  0.00  0.00    +0.000 A 
ATOM      5  C11 UNL     1     157.524 155.716 163.917  0.00  0.00    +0.000 A 
ATOM      6  C12 UNL     1     156.934 155.794 165.144  0.00  0.00    +0.000 A 
ATOM      7  C13 UNL     1     157.484 156.586 166.158  0.00  0.00    +0.000 A 
ATOM      8  O2  UNL     1     156.843 156.609 167.360  0.00  0.00    +0.000 OA
ATOM      9  C14 UNL     1     157.378 157.388 168.403  0.00  0.00    +0.000 A 
ATOM     10  C15 UNL     1     156.632 157.311 169.578  0.00  0.00    +0.000 A 
ATOM     11  C16 UNL     1     157.067 158.029 170.677  0.00  0.00    +0.000 A 
ATOM     12  C17 UNL     1     158.200 158.774 170.558  0.00  0.00    +0.000 A 
ATOM     13  C18 UNL     1     158.934 158.842 169.380  0.00  0.00    +0.000 A 
ATOM     14  C19 UNL     1     158.524 158.141 168.273  0.00  0.00    +0.000 A 
ENDROOT
BRANCH   5  15
ATOM     15  O1  UNL     1     157.015 154.941 162.874  0.00  0.00    +0.000 OA
ATOM     16  H17 UNL     1     156.679 155.474 162.060  0.00  0.00    +0.000 HD
ENDBRANCH   5  15
BRANCH  11  17
ATOM     17  O3  UNL     1     156.316 157.944 171.841  0.00  0.00    +0.000 OA
ATOM     18  H20 UNL     1     156.109 157.060 172.282  0.00  0.00    +0.000 HD
ENDBRANCH  11  17
BRANCH   1  19
ATOM     19  C6  UNL     1     159.193 159.573 166.326  0.00  0.00    +0.000 C 
BRANCH  19  20
ATOM     20  C5  UNL     1     157.924 160.310 166.340  0.00  0.00    +0.000 C 
BRANCH  20  21
ATOM     21  C4  UNL     1     157.352 160.502 164.939  0.00  0.00    +0.000 C 
BRANCH  21  22
ATOM     22  C3  UNL     1     156.032 159.758 164.764  0.00  0.00    +0.000 C 
BRANCH  22  24
ATOM     23  C1  UNL     1     154.301 158.658 166.211  0.00  0.00    +0.000 C 
ATOM     24  C2  UNL     1     155.411 159.687 166.148  0.00  0.00    +0.000 C 
ENDBRANCH  22  24
ENDBRANCH  21  22
ENDBRANCH  20  21
ENDBRANCH  19  20
ENDBRANCH   1  19
TORSDOF 7
ENDMDL
MODEL 3
REMARK VINA RESULT:      -5.4      2.175      3.235
REMARK  Name = ./3D_structures\o49_MMV1593535_3D.pdb
REMARK  8 active torsions:
REMARK  status: ('A' for Active; 'I' for Inactive)
REMARK    1  A    between atoms: C1_1  and  C2_2
REMARK    2  A    between atoms: C2_2  and  C3_3
REMARK    3  A    between atoms: C3_3  and  C4_4
REMARK    4  A    between atoms: C4_4  and  C5_5
REMARK    5  A    between atoms: C5_5  and  C6_6
REMARK    6  A    between atoms: C6_6  and  C7_7
REMARK    7  A    between atoms: C11_11  and  O1_12
REMARK    8  A    between atoms: C16_18  and  O3_19
REMARK                            x       y       z     vdW  Elec       q    Type
REMARK                         _______ _______ _______ _____ _____    ______ ____
ROOT
ATOM      1  C7  UNL     1     154.968 157.146 168.736  0.00  0.00    +0.000 C 
ATOM      2  C8  UNL     1     155.922 157.524 167.626  0.00  0.00    +0.000 A 
ATOM      3  C9  UNL     1     157.028 156.700 167.420  0.00  0.00    +0.000 A 
ATOM      4  C10 UNL     1     157.979 156.987 166.452  0.00  0.00    +0.000 A 
ATOM      5  C11 UNL     1     157.852 158.100 165.667  0.00  0.00    +0.000 A 
ATOM      6  C12 UNL     1     156.772 158.911 165.862  0.00  0.00    +0.000 A 
ATOM      7  C13 UNL     1     155.817 158.614 166.839  0.00  0.00    +0.000 A 
ATOM      8  O2  UNL     1     154.761 159.466 166.971  0.00  0.00    +0.000 OA
ATOM      9  C14 UNL     1     153.778 159.189 167.939  0.00  0.00    +0.000 A 
ATOM     10  C15 UNL     1     152.752 160.132 167.957  0.00  0.00    +0.000 A 
ATOM     11  C16 UNL     1     151.721 159.959 168.863  0.00  0.00    +0.000 A 
ATOM     12  C17 UNL     1     151.759 158.878 169.690  0.00  0.00    +0.000 A 
ATOM     13  C18 UNL     1     152.789 157.945 169.661  0.00  0.00    +0.000 A 
ATOM     14  C19 UNL     1     153.826 158.094 168.773  0.00  0.00    +0.000 A 
ENDROOT
BRANCH   5  15
ATOM     15  O1  UNL     1     158.832 158.353 164.706  0.00  0.00    +0.000 OA
ATOM     16  H17 UNL     1     159.801 158.272 165.041  0.00  0.00    +0.000 HD
ENDBRANCH   5  15
BRANCH  11  17
ATOM     17  O3  UNL     1     150.705 160.904 168.872  0.00  0.00    +0.000 OA
ATOM     18  H20 UNL     1     149.949 160.872 169.540  0.00  0.00    +0.000 HD
ENDBRANCH  11  17
BRANCH   1  19
ATOM     19  C6  UNL     1     155.829 157.179 169.971  0.00  0.00    +0.000 C 
BRANCH  19  20
ATOM     20  C5  UNL     1     156.120 158.474 170.598  0.00  0.00    +0.000 C 
BRANCH  20  21
ATOM     21  C4  UNL     1     157.540 158.542 171.150  0.00  0.00    +0.000 C 
BRANCH  21  22
ATOM     22  C3  UNL     1     158.580 158.443 170.038  0.00  0.00    +0.000 C 
BRANCH  22  24
ATOM     23  C1  UNL     1     159.661 159.920 168.321  0.00  0.00    +0.000 C 
ATOM     24  C2  UNL     1     158.496 159.753 169.275  0.00  0.00    +0.000 C 
ENDBRANCH  22  24
ENDBRANCH  21  22
ENDBRANCH  20  21
ENDBRANCH  19  20
ENDBRANCH   1  19
TORSDOF 7
ENDMDL
MODEL 4
REMARK VINA RESULT:      -5.3      1.237      2.260
REMARK  Name = ./3D_structures\o49_MMV1593535_3D.pdb
REMARK  8 active torsions:
REMARK  status: ('A' for Active; 'I' for Inactive)
REMARK    1  A    between atoms: C1_1  and  C2_2
REMARK    2  A    between atoms: C2_2  and  C3_3
REMARK    3  A    between atoms: C3_3  and  C4_4
REMARK    4  A    between atoms: C4_4  and  C5_5
REMARK    5  A    between atoms: C5_5  and  C6_6
REMARK    6  A    between atoms: C6_6  and  C7_7
REMARK    7  A    between atoms: C11_11  and  O1_12
REMARK    8  A    between atoms: C16_18  and  O3_19
REMARK                            x       y       z     vdW  Elec       q    Type
REMARK                         _______ _______ _______ _____ _____    ______ ____
ROOT
ATOM      1  C7  UNL     1     156.870 158.183 170.731  0.00  0.00    +0.000 C 
ATOM      2  C8  UNL     1     156.388 157.817 169.346  0.00  0.00    +0.000 A 
ATOM      3  C9  UNL     1     157.237 157.048 168.551  0.00  0.00    +0.000 A 
ATOM      4  C10 UNL     1     156.898 156.696 167.253  0.00  0.00    +0.000 A 
ATOM      5  C11 UNL     1     155.707 157.102 166.716  0.00  0.00    +0.000 A 
ATOM      6  C12 UNL     1     154.870 157.853 167.487  0.00  0.00    +0.000 A 
ATOM      7  C13 UNL     1     155.218 158.203 168.795  0.00  0.00    +0.000 A 
ATOM      8  O2  UNL     1     154.328 158.949 169.508  0.00  0.00    +0.000 OA
ATOM      9  C14 UNL     1     154.646 159.309 170.832  0.00  0.00    +0.000 A 
ATOM     10  C15 UNL     1     153.645 160.059 171.447  0.00  0.00    +0.000 A 
ATOM     11  C16 UNL     1     153.841 160.462 172.756  0.00  0.00    +0.000 A 
ATOM     12  C17 UNL     1     154.999 160.107 173.377  0.00  0.00    +0.000 A 
ATOM     13  C18 UNL     1     155.989 159.359 172.752  0.00  0.00    +0.000 A 
ATOM     14  C19 UNL     1     155.821 158.947 171.452  0.00  0.00    +0.000 A 
ENDROOT
BRANCH   5  15
ATOM     15  O1  UNL     1     155.406 156.727 165.405  0.00  0.00    +0.000 OA
ATOM     16  H17 UNL     1     155.075 157.490 164.799  0.00  0.00    +0.000 HD
ENDBRANCH   5  15
BRANCH  11  17
ATOM     17  O3  UNL     1     152.838 161.208 173.357  0.00  0.00    +0.000 OA
ATOM     18  H20 UNL     1     153.017 161.807 174.150  0.00  0.00    +0.000 HD
ENDBRANCH  11  17
BRANCH   1  19
ATOM     19  C6  UNL     1     158.129 158.968 170.473  0.00  0.00    +0.000 C 
BRANCH  19  20
ATOM     20  C5  UNL     1     158.077 160.106 169.547  0.00  0.00    +0.000 C 
BRANCH  20  21
ATOM     21  C4  UNL     1     158.033 161.443 170.279  0.00  0.00    +0.000 C 
BRANCH  21  22
ATOM     22  C3  UNL     1     156.769 162.228 169.940  0.00  0.00    +0.000 C 
BRANCH  22  24
ATOM     23  C1  UNL     1     157.389 162.768 172.312  0.00  0.00    +0.000 C 
ATOM     24  C2  UNL     1     156.326 162.878 171.239  0.00  0.00    +0.000 C 
ENDBRANCH  22  24
ENDBRANCH  21  22
ENDBRANCH  20  21
ENDBRANCH  19  20
ENDBRANCH   1  19
TORSDOF 7
ENDMDL
MODEL 5
REMARK VINA RESULT:      -5.2      2.587      6.602
REMARK  Name = ./3D_structures\o49_MMV1593535_3D.pdb
REMARK  8 active torsions:
REMARK  status: ('A' for Active; 'I' for Inactive)
REMARK    1  A    between atoms: C1_1  and  C2_2
REMARK    2  A    between atoms: C2_2  and  C3_3
REMARK    3  A    between atoms: C3_3  and  C4_4
REMARK    4  A    between atoms: C4_4  and  C5_5
REMARK    5  A    between atoms: C5_5  and  C6_6
REMARK    6  A    between atoms: C6_6  and  C7_7
REMARK    7  A    between atoms: C11_11  and  O1_12
REMARK    8  A    between atoms: C16_18  and  O3_19
REMARK                            x       y       z     vdW  Elec       q    Type
REMARK                         _______ _______ _______ _____ _____    ______ ____
ROOT
ATOM      1  C7  UNL     1     157.322 156.658 166.866  0.00  0.00    +0.000 C 
ATOM      2  C8  UNL     1     157.213 157.159 168.289  0.00  0.00    +0.000 A 
ATOM      3  C9  UNL     1     156.078 156.796 169.013  0.00  0.00    +0.000 A 
ATOM      4  C10 UNL     1     155.871 157.240 170.311  0.00  0.00    +0.000 A 
ATOM      5  C11 UNL     1     156.788 158.054 170.917  0.00  0.00    +0.000 A 
ATOM      6  C12 UNL     1     157.902 158.412 170.216  0.00  0.00    +0.000 A 
ATOM      7  C13 UNL     1     158.104 157.960 168.909  0.00  0.00    +0.000 A 
ATOM      8  O2  UNL     1     159.244 158.353 168.273  0.00  0.00    +0.000 OA
ATOM      9  C14 UNL     1     159.481 157.906 166.960  0.00  0.00    +0.000 A 
ATOM     10  C15 UNL     1     160.686 158.372 166.436  0.00  0.00    +0.000 A 
ATOM     11  C16 UNL     1     161.032 157.989 165.152  0.00  0.00    +0.000 A 
ATOM     12  C17 UNL     1     160.181 157.178 164.465  0.00  0.00    +0.000 A 
ATOM     13  C18 UNL     1     158.983 156.721 165.000  0.00  0.00    +0.000 A 
ATOM     14  C19 UNL     1     158.613 157.087 166.271  0.00  0.00    +0.000 A 
ENDROOT
BRANCH   5  15
ATOM     15  O1  UNL     1     156.540 158.478 172.224  0.00  0.00    +0.000 OA
ATOM     16  H17 UNL     1     155.960 159.325 172.304  0.00  0.00    +0.000 HD
ENDBRANCH   5  15
BRANCH  11  17
ATOM     17  O3  UNL     1     162.233 158.458 164.641  0.00  0.00    +0.000 OA
ATOM     18  H20 UNL     1     162.979 157.836 164.367  0.00  0.00    +0.000 HD
ENDBRANCH  11  17
BRANCH   1  19
ATOM     19  C6  UNL     1     156.112 157.245 166.190  0.00  0.00    +0.000 C 
BRANCH  19  20
ATOM     20  C5  UNL     1     156.227 158.563 165.552  0.00  0.00    +0.000 C 
BRANCH  20  21
ATOM     21  C4  UNL     1     155.299 159.593 166.188  0.00  0.00    +0.000 C 
BRANCH  21  22
ATOM     22  C3  UNL     1     153.979 158.966 166.627  0.00  0.00    +0.000 C 
BRANCH  22  24
ATOM     23  C1  UNL     1     154.860 160.354 168.524  0.00  0.00    +0.000 C 
ATOM     24  C2  UNL     1     153.722 159.485 168.031  0.00  0.00    +0.000 C 
ENDBRANCH  22  24
ENDBRANCH  21  22
ENDBRANCH  20  21
ENDBRANCH  19  20
ENDBRANCH   1  19
TORSDOF 7
ENDMDL
MODEL 6
REMARK VINA RESULT:      -5.2      2.064      6.381
REMARK  Name = ./3D_structures\o49_MMV1593535_3D.pdb
REMARK  8 active torsions:
REMARK  status: ('A' for Active; 'I' for Inactive)
REMARK    1  A    between atoms: C1_1  and  C2_2
REMARK    2  A    between atoms: C2_2  and  C3_3
REMARK    3  A    between atoms: C3_3  and  C4_4
REMARK    4  A    between atoms: C4_4  and  C5_5
REMARK    5  A    between atoms: C5_5  and  C6_6
REMARK    6  A    between atoms: C6_6  and  C7_7
REMARK    7  A    between atoms: C11_11  and  O1_12
REMARK    8  A    between atoms: C16_18  and  O3_19
REMARK                            x       y       z     vdW  Elec       q    Type
REMARK                         _______ _______ _______ _____ _____    ______ ____
ROOT
ATOM      1  C7  UNL     1     156.568 157.026 168.881  0.00  0.00    +0.000 C 
ATOM      2  C8  UNL     1     156.775 158.131 169.892  0.00  0.00    +0.000 A 
ATOM      3  C9  UNL     1     156.107 158.020 171.112  0.00  0.00    +0.000 A 
ATOM      4  C10 UNL     1     156.203 159.003 172.086  0.00  0.00    +0.000 A 
ATOM      5  C11 UNL     1     156.965 160.118 171.869  0.00  0.00    +0.000 A 
ATOM      6  C12 UNL     1     157.623 160.233 170.680  0.00  0.00    +0.000 A 
ATOM      7  C13 UNL     1     157.522 159.238 169.703  0.00  0.00    +0.000 A 
ATOM      8  O2  UNL     1     158.214 159.419 168.542  0.00  0.00    +0.000 OA
ATOM      9  C14 UNL     1     158.140 158.430 167.544  0.00  0.00    +0.000 A 
ATOM     10  C15 UNL     1     158.903 158.735 166.418  0.00  0.00    +0.000 A 
ATOM     11  C16 UNL     1     158.917 157.830 165.372  0.00  0.00    +0.000 A 
ATOM     12  C17 UNL     1     158.186 156.688 165.494  0.00  0.00    +0.000 A 
ATOM     13  C18 UNL     1     157.430 156.396 166.622  0.00  0.00    +0.000 A 
ATOM     14  C19 UNL     1     157.396 157.278 167.675  0.00  0.00    +0.000 A 
ENDROOT
BRANCH   5  15
ATOM     15  O1  UNL     1     157.034 161.083 172.876  0.00  0.00    +0.000 OA
ATOM     16  H17 UNL     1     157.233 160.717 173.817  0.00  0.00    +0.000 HD
ENDBRANCH   5  15
BRANCH  11  17
ATOM     17  O3  UNL     1     159.679 158.145 164.257  0.00  0.00    +0.000 OA
ATOM     18  H20 UNL     1     159.659 159.062 163.836  0.00  0.00    +0.000 HD
ENDBRANCH  11  17
BRANCH   1  19
ATOM     19  C6  UNL     1     155.086 157.056 168.621  0.00  0.00    +0.000 C 
BRANCH  19  20
ATOM     20  C5  UNL     1     154.553 158.033 167.665  0.00  0.00    +0.000 C 
BRANCH  20  21
ATOM     21  C4  UNL     1     153.495 158.936 168.291  0.00  0.00    +0.000 C 
BRANCH  21  22
ATOM     22  C3  UNL     1     152.798 158.254 169.465  0.00  0.00    +0.000 C 
BRANCH  22  24
ATOM     23  C1  UNL     1     153.452 160.568 170.187  0.00  0.00    +0.000 C 
ATOM     24  C2  UNL     1     152.690 159.310 170.551  0.00  0.00    +0.000 C 
ENDBRANCH  22  24
ENDBRANCH  21  22
ENDBRANCH  20  21
ENDBRANCH  19  20
ENDBRANCH   1  19
TORSDOF 7
ENDMDL
MODEL 7
REMARK VINA RESULT:      -5.2      2.269      6.078
REMARK  Name = ./3D_structures\o49_MMV1593535_3D.pdb
REMARK  8 active torsions:
REMARK  status: ('A' for Active; 'I' for Inactive)
REMARK    1  A    between atoms: C1_1  and  C2_2
REMARK    2  A    between atoms: C2_2  and  C3_3
REMARK    3  A    between atoms: C3_3  and  C4_4
REMARK    4  A    between atoms: C4_4  and  C5_5
REMARK    5  A    between atoms: C5_5  and  C6_6
REMARK    6  A    between atoms: C6_6  and  C7_7
REMARK    7  A    between atoms: C11_11  and  O1_12
REMARK    8  A    between atoms: C16_18  and  O3_19
REMARK                            x       y       z     vdW  Elec       q    Type
REMARK                         _______ _______ _______ _____ _____    ______ ____
ROOT
ATOM      1  C7  UNL     1     156.512 157.047 168.764  0.00  0.00    +0.000 C 
ATOM      2  C8  UNL     1     156.736 158.119 169.807  0.00  0.00    +0.000 A 
ATOM      3  C9  UNL     1     155.978 158.048 170.975  0.00  0.00    +0.000 A 
ATOM      4  C10 UNL     1     156.085 159.008 171.971  0.00  0.00    +0.000 A 
ATOM      5  C11 UNL     1     156.948 160.060 171.827  0.00  0.00    +0.000 A 
ATOM      6  C12 UNL     1     157.694 160.135 170.687  0.00  0.00    +0.000 A 
ATOM      7  C13 UNL     1     157.582 159.163 169.688  0.00  0.00    +0.000 A 
ATOM      8  O2  UNL     1     158.364 159.301 168.581  0.00  0.00    +0.000 OA
ATOM      9  C14 UNL     1     158.280 158.333 167.562  0.00  0.00    +0.000 A 
ATOM     10  C15 UNL     1     159.142 158.589 166.497  0.00  0.00    +0.000 A 
ATOM     11  C16 UNL     1     159.155 157.698 165.439  0.00  0.00    +0.000 A 
ATOM     12  C17 UNL     1     158.329 156.617 165.490  0.00  0.00    +0.000 A 
ATOM     13  C18 UNL     1     157.474 156.375 166.559  0.00  0.00    +0.000 A 
ATOM     14  C19 UNL     1     157.439 157.244 167.622  0.00  0.00    +0.000 A 
ENDROOT
BRANCH   5  15
ATOM     15  O1  UNL     1     157.024 161.004 172.852  0.00  0.00    +0.000 OA
ATOM     16  H17 UNL     1     156.121 161.265 173.270  0.00  0.00    +0.000 HD
ENDBRANCH   5  15
BRANCH  11  17
ATOM     17  O3  UNL     1     160.017 157.963 164.384  0.00  0.00    +0.000 OA
ATOM     18  H20 UNL     1     160.718 158.686 164.434  0.00  0.00    +0.000 HD
ENDBRANCH  11  17
BRANCH   1  19
ATOM     19  C6  UNL     1     155.058 157.200 168.405  0.00  0.00    +0.000 C 
BRANCH  19  20
ATOM     20  C5  UNL     1     154.594 158.482 167.862  0.00  0.00    +0.000 C 
BRANCH  20  21
ATOM     21  C4  UNL     1     154.372 158.424 166.354  0.00  0.00    +0.000 C 
BRANCH  21  22
ATOM     22  C3  UNL     1     154.112 159.810 165.771  0.00  0.00    +0.000 C 
BRANCH  22  24
ATOM     23  C1  UNL     1     156.287 159.833 164.519  0.00  0.00    +0.000 C 
ATOM     24  C2  UNL     1     155.475 160.463 165.632  0.00  0.00    +0.000 C 
ENDBRANCH  22  24
ENDBRANCH  21  22
ENDBRANCH  20  21
ENDBRANCH  19  20
ENDBRANCH   1  19
TORSDOF 7
ENDMDL
MODEL 8
REMARK VINA RESULT:      -5.1      3.070      5.291
REMARK  Name = ./3D_structures\o49_MMV1593535_3D.pdb
REMARK  8 active torsions:
REMARK  status: ('A' for Active; 'I' for Inactive)
REMARK    1  A    between atoms: C1_1  and  C2_2
REMARK    2  A    between atoms: C2_2  and  C3_3
REMARK    3  A    between atoms: C3_3  and  C4_4
REMARK    4  A    between atoms: C4_4  and  C5_5
REMARK    5  A    between atoms: C5_5  and  C6_6
REMARK    6  A    between atoms: C6_6  and  C7_7
REMARK    7  A    between atoms: C11_11  and  O1_12
REMARK    8  A    between atoms: C16_18  and  O3_19
REMARK                            x       y       z     vdW  Elec       q    Type
REMARK                         _______ _______ _______ _____ _____    ______ ____
ROOT
ATOM      1  C7  UNL     1     154.638 158.250 166.196  0.00  0.00    +0.000 C 
ATOM      2  C8  UNL     1     156.085 157.905 165.929  0.00  0.00    +0.000 A 
ATOM      3  C9  UNL     1     156.510 156.617 166.255  0.00  0.00    +0.000 A 
ATOM      4  C10 UNL     1     157.828 156.221 166.083  0.00  0.00    +0.000 A 
ATOM      5  C11 UNL     1     158.754 157.097 165.584  0.00  0.00    +0.000 A 
ATOM      6  C12 UNL     1     158.346 158.358 165.262  0.00  0.00    +0.000 A 
ATOM      7  C13 UNL     1     157.015 158.750 165.437  0.00  0.00    +0.000 A 
ATOM      8  O2  UNL     1     156.679 160.023 165.087  0.00  0.00    +0.000 OA
ATOM      9  C14 UNL     1     155.345 160.444 165.241  0.00  0.00    +0.000 A 
ATOM     10  C15 UNL     1     155.140 161.761 164.834  0.00  0.00    +0.000 A 
ATOM     11  C16 UNL     1     153.862 162.283 164.930  0.00  0.00    +0.000 A 
ATOM     12  C17 UNL     1     152.871 161.487 165.416  0.00  0.00    +0.000 A 
ATOM     13  C18 UNL     1     153.090 160.175 165.820  0.00  0.00    +0.000 A 
ATOM     14  C19 UNL     1     154.349 159.632 165.737  0.00  0.00    +0.000 A 
ENDROOT
BRANCH   5  15
ATOM     15  O1  UNL     1     160.069 156.658 165.429  0.00  0.00    +0.000 OA
ATOM     16  H17 UNL     1     160.240 156.079 164.595  0.00  0.00    +0.000 HD
ENDBRANCH   5  15
BRANCH  11  17
ATOM     17  O3  UNL     1     153.669 163.595 164.521  0.00  0.00    +0.000 OA
ATOM     18  H20 UNL     1     153.104 164.243 165.049  0.00  0.00    +0.000 HD
ENDBRANCH  11  17
BRANCH   1  19
ATOM     19  C6  UNL     1     154.495 158.057 167.682  0.00  0.00    +0.000 C 
BRANCH  19  20
ATOM     20  C5  UNL     1     155.000 159.100 168.583  0.00  0.00    +0.000 C 
BRANCH  20  21
ATOM     21  C4  UNL     1     155.519 158.525 169.898  0.00  0.00    +0.000 C 
BRANCH  21  22
ATOM     22  C3  UNL     1     156.696 157.582 169.672  0.00  0.00    +0.000 C 
BRANCH  22  24
ATOM     23  C1  UNL     1     158.907 158.562 168.999  0.00  0.00    +0.000 C 
ATOM     24  C2  UNL     1     157.928 158.340 170.134  0.00  0.00    +0.000 C 
ENDBRANCH  22  24
ENDBRANCH  21  22
ENDBRANCH  20  21
ENDBRANCH  19  20
ENDBRANCH   1  19
TORSDOF 7
ENDMDL
MODEL 9
REMARK VINA RESULT:      -5.1      2.157      5.698
REMARK  Name = ./3D_structures\o49_MMV1593535_3D.pdb
REMARK  8 active torsions:
REMARK  status: ('A' for Active; 'I' for Inactive)
REMARK    1  A    between atoms: C1_1  and  C2_2
REMARK    2  A    between atoms: C2_2  and  C3_3
REMARK    3  A    between atoms: C3_3  and  C4_4
REMARK    4  A    between atoms: C4_4  and  C5_5
REMARK    5  A    between atoms: C5_5  and  C6_6
REMARK    6  A    between atoms: C6_6  and  C7_7
REMARK    7  A    between atoms: C11_11  and  O1_12
REMARK    8  A    between atoms: C16_18  and  O3_19
REMARK                            x       y       z     vdW  Elec       q    Type
REMARK                         _______ _______ _______ _____ _____    ______ ____
ROOT
ATOM      1  C7  UNL     1     157.636 158.205 170.483  0.00  0.00    +0.000 C 
ATOM      2  C8  UNL     1     157.035 159.275 171.365  0.00  0.00    +0.000 A 
ATOM      3  C9  UNL     1     156.184 158.860 172.390  0.00  0.00    +0.000 A 
ATOM      4  C10 UNL     1     155.554 159.770 173.226  0.00  0.00    +0.000 A 
ATOM      5  C11 UNL     1     155.756 161.114 173.061  0.00  0.00    +0.000 A 
ATOM      6  C12 UNL     1     156.587 161.527 172.063  0.00  0.00    +0.000 A 
ATOM      7  C13 UNL     1     157.220 160.604 171.225  0.00  0.00    +0.000 A 
ATOM      8  O2  UNL     1     158.042 161.091 170.253  0.00  0.00    +0.000 OA
ATOM      9  C14 UNL     1     158.701 160.185 169.400  0.00  0.00    +0.000 A 
ATOM     10  C15 UNL     1     159.518 160.816 168.464  0.00  0.00    +0.000 A 
ATOM     11  C16 UNL     1     160.226 160.026 167.576  0.00  0.00    +0.000 A 
ATOM     12  C17 UNL     1     160.090 158.674 167.660  0.00  0.00    +0.000 A 
ATOM     13  C18 UNL     1     159.271 158.058 168.599  0.00  0.00    +0.000 A 
ATOM     14  C19 UNL     1     158.556 158.819 169.491  0.00  0.00    +0.000 A 
ENDROOT
BRANCH   5  15
ATOM     15  O1  UNL     1     155.101 161.995 173.923  0.00  0.00    +0.000 OA
ATOM     16  H17 UNL     1     155.029 162.964 173.583  0.00  0.00    +0.000 HD
ENDBRANCH   5  15
BRANCH  11  17
ATOM     17  O3  UNL     1     161.036 160.665 166.649  0.00  0.00    +0.000 OA
ATOM     18  H20 UNL     1     160.807 160.694 165.667  0.00  0.00    +0.000 HD
ENDBRANCH  11  17
BRANCH   1  19
ATOM     19  C6  UNL     1     156.436 157.534 169.869  0.00  0.00    +0.000 C 
BRANCH  19  20
ATOM     20  C5  UNL     1     155.591 158.301 168.945  0.00  0.00    +0.000 C 
BRANCH  20  21
ATOM     21  C4  UNL     1     155.577 157.700 167.543  0.00  0.00    +0.000 C 
BRANCH  21  22
ATOM     22  C3  UNL     1     156.174 158.657 166.516  0.00  0.00    +0.000 C 
BRANCH  22  24
ATOM     23  C1  UNL     1     157.075 156.359 166.063  0.00  0.00    +0.000 C 
ATOM     24  C2  UNL     1     157.023 157.798 165.595  0.00  0.00    +0.000 C 
ENDBRANCH  22  24
ENDBRANCH  21  22
ENDBRANCH  20  21
ENDBRANCH  19  20
ENDBRANCH   1  19
TORSDOF 7
ENDMDL
