MODEL 1
REMARK VINA RESULT:      -7.7      0.000      0.000
REMARK  Name = ./3D_structures\o50_MMV1593533_3D.pdb
REMARK  5 active torsions:
REMARK  status: ('A' for Active; 'I' for Inactive)
REMARK    1  A    between atoms: C1_1  and  C2_2
REMARK    2  A    between atoms: C3_3  and  C16_22
REMARK    3  A    between atoms: N2_10  and  C6_11
REMARK    4  A    between atoms: C6_11  and  C7_12
REMARK    5  A    between atoms: C20_26  and  C22_28
REMARK                            x       y       z     vdW  Elec       q    Type
REMARK                         _______ _______ _______ _____ _____    ______ ____
ROOT
ATOM      1  C1  UNL     1     163.300 142.050 164.711  0.00  0.00    +0.000 C 
ATOM      2  C2  UNL     1     161.855 141.717 164.805  0.00  0.00    +0.000 C 
ATOM      3  C3  UNL     1     161.160 141.288 163.613  0.00  0.00    +0.000 C 
ATOM      4  O1  UNL     1     160.120 140.417 164.145  0.00  0.00    +0.000 OA
ATOM      5  C4  UNL     1     160.845 139.741 165.156  0.00  0.00    +0.000 C 
ATOM      6  O2  UNL     1     160.955 138.542 165.457  0.00  0.00    +0.000 OA
ATOM      7  N1  UNL     1     161.510 140.837 165.866  0.00  0.00    +0.000 N 
ATOM      8  C5  UNL     1     161.605 140.957 167.253  0.00  0.00    +0.000 C 
ATOM      9  O3  UNL     1     161.359 140.015 168.038  0.00  0.00    +0.000 OA
ATOM     10  N2  UNL     1     161.983 142.191 167.910  0.00  0.00    +0.000 N 
ATOM     11  H6  UNL     1     162.199 142.991 167.306  0.00  0.00    +0.000 HD
ENDROOT
BRANCH   3  12
ATOM     12  C16 UNL     1     161.736 140.485 162.554  0.00  0.00    +0.000 A 
ATOM     13  C17 UNL     1     160.828 139.857 161.668  0.00  0.00    +0.000 A 
ATOM     14  C18 UNL     1     161.298 139.043 160.669  0.00  0.00    +0.000 A 
ATOM     15  C19 UNL     1     162.613 138.817 160.487  0.00  0.00    +0.000 A 
ATOM     16  C20 UNL     1     163.512 139.401 161.315  0.00  0.00    +0.000 A 
ATOM     17  C21 UNL     1     163.052 140.233 162.345  0.00  0.00    +0.000 A 
BRANCH  16  18
ATOM     18  C22 UNL     1     164.976 139.156 161.111  0.00  0.00    +0.000 C 
ATOM     19  F1  UNL     1     165.111 138.096 160.237  0.00  0.00    +0.000 F 
ATOM     20  F2  UNL     1     165.457 140.268 160.425  0.00  0.00    +0.000 F 
ATOM     21  F3  UNL     1     165.627 138.875 162.260  0.00  0.00    +0.000 F 
ENDBRANCH  16  18
ENDBRANCH   3  12
BRANCH  10  22
ATOM     22  C6  UNL     1     162.059 142.268 169.338  0.00  0.00    +0.000 C 
BRANCH  22  23
ATOM     23  C7  UNL     1     161.398 143.437 169.953  0.00  0.00    +0.000 A 
ATOM     24  C8  UNL     1     160.376 144.147 169.345  0.00  0.00    +0.000 A 
ATOM     25  N3  UNL     1     159.747 145.160 169.993  0.00  0.00    +0.000 NA
ATOM     26  C9  UNL     1     160.054 145.543 171.231  0.00  0.00    +0.000 A 
ATOM     27  C10 UNL     1     161.070 144.870 171.888  0.00  0.00    +0.000 A 
ATOM     28  C11 UNL     1     161.437 145.234 173.188  0.00  0.00    +0.000 A 
ATOM     29  C12 UNL     1     162.451 144.562 173.825  0.00  0.00    +0.000 A 
ATOM     30  C13 UNL     1     163.087 143.533 173.157  0.00  0.00    +0.000 A 
ATOM     31  C14 UNL     1     162.730 143.172 171.881  0.00  0.00    +0.000 A 
ATOM     32  C15 UNL     1     161.722 143.839 171.249  0.00  0.00    +0.000 A 
ENDBRANCH  22  23
ENDBRANCH  10  22
TORSDOF 4
ENDMDL
MODEL 2
REMARK VINA RESULT:      -7.3     18.377     21.412
REMARK  Name = ./3D_structures\o50_MMV1593533_3D.pdb
REMARK  5 active torsions:
REMARK  status: ('A' for Active; 'I' for Inactive)
REMARK    1  A    between atoms: C1_1  and  C2_2
REMARK    2  A    between atoms: C3_3  and  C16_22
REMARK    3  A    between atoms: N2_10  and  C6_11
REMARK    4  A    between atoms: C6_11  and  C7_12
REMARK    5  A    between atoms: C20_26  and  C22_28
REMARK                            x       y       z     vdW  Elec       q    Type
REMARK                         _______ _______ _______ _____ _____    ______ ____
ROOT
ATOM      1  C1  UNL     1     154.432 160.429 166.522  0.00  0.00    +0.000 C 
ATOM      2  C2  UNL     1     153.836 159.192 167.090  0.00  0.00    +0.000 C 
ATOM      3  C3  UNL     1     154.521 157.935 166.892  0.00  0.00    +0.000 C 
ATOM      4  O1  UNL     1     154.136 157.173 168.073  0.00  0.00    +0.000 OA
ATOM      5  C4  UNL     1     154.204 158.183 169.063  0.00  0.00    +0.000 C 
ATOM      6  O2  UNL     1     154.728 158.229 170.186  0.00  0.00    +0.000 OA
ATOM      7  N1  UNL     1     153.452 159.283 168.455  0.00  0.00    +0.000 N 
ATOM      8  C5  UNL     1     152.512 160.077 169.113  0.00  0.00    +0.000 C 
ATOM      9  O3  UNL     1     152.394 160.104 170.358  0.00  0.00    +0.000 OA
ATOM     10  N2  UNL     1     151.576 160.930 168.411  0.00  0.00    +0.000 N 
ATOM     11  H6  UNL     1     151.638 160.945 167.388  0.00  0.00    +0.000 HD
ENDROOT
BRANCH   3  12
ATOM     12  C16 UNL     1     155.959 157.763 166.858  0.00  0.00    +0.000 A 
ATOM     13  C17 UNL     1     156.476 156.957 165.816  0.00  0.00    +0.000 A 
ATOM     14  C18 UNL     1     157.825 156.710 165.746  0.00  0.00    +0.000 A 
ATOM     15  C19 UNL     1     158.694 157.219 166.640  0.00  0.00    +0.000 A 
ATOM     16  C20 UNL     1     158.235 157.996 167.650  0.00  0.00    +0.000 A 
ATOM     17  C21 UNL     1     156.860 158.256 167.742  0.00  0.00    +0.000 A 
BRANCH  16  18
ATOM     18  C22 UNL     1     159.202 158.568 168.643  0.00  0.00    +0.000 C 
ATOM     19  F1  UNL     1     158.916 158.021 169.877  0.00  0.00    +0.000 F 
ATOM     20  F2  UNL     1     160.451 158.064 168.291  0.00  0.00    +0.000 F 
ATOM     21  F3  UNL     1     159.137 159.914 168.722  0.00  0.00    +0.000 F 
ENDBRANCH  16  18
ENDBRANCH   3  12
BRANCH  10  22
ATOM     22  C6  UNL     1     150.623 161.721 169.132  0.00  0.00    +0.000 C 
BRANCH  22  23
ATOM     23  C7  UNL     1     149.271 161.792 168.540  0.00  0.00    +0.000 A 
ATOM     24  C8  UNL     1     148.757 160.830 167.687  0.00  0.00    +0.000 A 
ATOM     25  N3  UNL     1     147.477 160.903 167.241  0.00  0.00    +0.000 NA
ATOM     26  C9  UNL     1     146.636 161.880 167.578  0.00  0.00    +0.000 A 
ATOM     27  C10 UNL     1     147.097 162.872 168.427  0.00  0.00    +0.000 A 
ATOM     28  C11 UNL     1     146.258 163.924 168.809  0.00  0.00    +0.000 A 
ATOM     29  C12 UNL     1     146.730 164.904 169.647  0.00  0.00    +0.000 A 
ATOM     30  C13 UNL     1     148.035 164.822 170.094  0.00  0.00    +0.000 A 
ATOM     31  C14 UNL     1     148.862 163.791 169.723  0.00  0.00    +0.000 A 
ATOM     32  C15 UNL     1     148.392 162.817 168.891  0.00  0.00    +0.000 A 
ENDBRANCH  22  23
ENDBRANCH  10  22
TORSDOF 4
ENDMDL
MODEL 3
REMARK VINA RESULT:      -7.3     20.852     24.220
REMARK  Name = ./3D_structures\o50_MMV1593533_3D.pdb
REMARK  5 active torsions:
REMARK  status: ('A' for Active; 'I' for Inactive)
REMARK    1  A    between atoms: C1_1  and  C2_2
REMARK    2  A    between atoms: C3_3  and  C16_22
REMARK    3  A    between atoms: N2_10  and  C6_11
REMARK    4  A    between atoms: C6_11  and  C7_12
REMARK    5  A    between atoms: C20_26  and  C22_28
REMARK                            x       y       z     vdW  Elec       q    Type
REMARK                         _______ _______ _______ _____ _____    ______ ____
ROOT
ATOM      1  C1  UNL     1     149.731 161.207 167.207  0.00  0.00    +0.000 C 
ATOM      2  C2  UNL     1     150.758 162.219 167.567  0.00  0.00    +0.000 C 
ATOM      3  C3  UNL     1     150.557 163.591 167.161  0.00  0.00    +0.000 C 
ATOM      4  O1  UNL     1     151.251 164.337 168.202  0.00  0.00    +0.000 OA
ATOM      5  C4  UNL     1     150.881 163.587 169.345  0.00  0.00    +0.000 C 
ATOM      6  O2  UNL     1     150.436 163.909 170.457  0.00  0.00    +0.000 OA
ATOM      7  N1  UNL     1     151.158 162.209 168.930  0.00  0.00    +0.000 N 
ATOM      8  C5  UNL     1     151.788 161.243 169.716  0.00  0.00    +0.000 C 
ATOM      9  O3  UNL     1     151.955 161.370 170.950  0.00  0.00    +0.000 OA
ATOM     10  N2  UNL     1     152.319 160.012 169.170  0.00  0.00    +0.000 N 
ATOM     11  H6  UNL     1     152.201 159.861 168.163  0.00  0.00    +0.000 HD
ENDROOT
BRANCH   3  12
ATOM     12  C16 UNL     1     149.274 164.261 167.090  0.00  0.00    +0.000 A 
ATOM     13  C17 UNL     1     149.211 165.425 166.286  0.00  0.00    +0.000 A 
ATOM     14  C18 UNL     1     148.042 166.140 166.208  0.00  0.00    +0.000 A 
ATOM     15  C19 UNL     1     146.930 165.770 166.870  0.00  0.00    +0.000 A 
ATOM     16  C20 UNL     1     146.953 164.662 167.649  0.00  0.00    +0.000 A 
ATOM     17  C21 UNL     1     148.139 163.920 167.746  0.00  0.00    +0.000 A 
BRANCH  16  18
ATOM     18  C22 UNL     1     145.714 164.245 168.383  0.00  0.00    +0.000 C 
ATOM     19  F1  UNL     1     145.601 165.036 169.507  0.00  0.00    +0.000 F 
ATOM     20  F2  UNL     1     144.648 164.607 167.564  0.00  0.00    +0.000 F 
ATOM     21  F3  UNL     1     145.732 162.946 168.747  0.00  0.00    +0.000 F 
ENDBRANCH  16  18
ENDBRANCH   3  12
BRANCH  10  22
ATOM     22  C6  UNL     1     152.965 159.054 170.017  0.00  0.00    +0.000 C 
BRANCH  22  23
ATOM     23  C7  UNL     1     154.126 158.357 169.426  0.00  0.00    +0.000 A 
ATOM     24  C8  UNL     1     154.066 157.630 168.249  0.00  0.00    +0.000 A 
ATOM     25  N3  UNL     1     155.183 157.081 167.708  0.00  0.00    +0.000 NA
ATOM     26  C9  UNL     1     156.394 157.195 168.250  0.00  0.00    +0.000 A 
ATOM     27  C10 UNL     1     156.515 157.910 169.430  0.00  0.00    +0.000 A 
ATOM     28  C11 UNL     1     157.763 158.057 170.045  0.00  0.00    +0.000 A 
ATOM     29  C12 UNL     1     157.867 158.764 171.218  0.00  0.00    +0.000 A 
ATOM     30  C13 UNL     1     156.724 159.317 171.763  0.00  0.00    +0.000 A 
ATOM     31  C14 UNL     1     155.497 159.176 171.162  0.00  0.00    +0.000 A 
ATOM     32  C15 UNL     1     155.394 158.475 169.997  0.00  0.00    +0.000 A 
ENDBRANCH  22  23
ENDBRANCH  10  22
TORSDOF 4
ENDMDL
MODEL 4
REMARK VINA RESULT:      -7.2     18.746     21.661
REMARK  Name = ./3D_structures\o50_MMV1593533_3D.pdb
REMARK  5 active torsions:
REMARK  status: ('A' for Active; 'I' for Inactive)
REMARK    1  A    between atoms: C1_1  and  C2_2
REMARK    2  A    between atoms: C3_3  and  C16_22
REMARK    3  A    between atoms: N2_10  and  C6_11
REMARK    4  A    between atoms: C6_11  and  C7_12
REMARK    5  A    between atoms: C20_26  and  C22_28
REMARK                            x       y       z     vdW  Elec       q    Type
REMARK                         _______ _______ _______ _____ _____    ______ ____
ROOT
ATOM      1  C1  UNL     1     154.769 160.226 165.484  0.00  0.00    +0.000 C 
ATOM      2  C2  UNL     1     154.136 159.104 166.223  0.00  0.00    +0.000 C 
ATOM      3  C3  UNL     1     154.829 157.837 166.294  0.00  0.00    +0.000 C 
ATOM      4  O1  UNL     1     154.369 157.292 167.565  0.00  0.00    +0.000 OA
ATOM      5  C4  UNL     1     154.377 158.462 168.363  0.00  0.00    +0.000 C 
ATOM      6  O2  UNL     1     154.830 158.710 169.490  0.00  0.00    +0.000 OA
ATOM      7  N1  UNL     1     153.667 159.431 167.524  0.00  0.00    +0.000 N 
ATOM      8  C5  UNL     1     152.690 160.320 167.972  0.00  0.00    +0.000 C 
ATOM      9  O3  UNL     1     152.495 160.566 169.184  0.00  0.00    +0.000 OA
ATOM     10  N2  UNL     1     151.801 161.028 167.075  0.00  0.00    +0.000 N 
ATOM     11  H6  UNL     1     151.927 160.862 166.071  0.00  0.00    +0.000 HD
ENDROOT
BRANCH   3  12
ATOM     12  C16 UNL     1     156.266 157.675 166.379  0.00  0.00    +0.000 A 
ATOM     13  C17 UNL     1     156.866 156.830 165.415  0.00  0.00    +0.000 A 
ATOM     14  C18 UNL     1     158.217 156.590 165.461  0.00  0.00    +0.000 A 
ATOM     15  C19 UNL     1     159.011 157.141 166.398  0.00  0.00    +0.000 A 
ATOM     16  C20 UNL     1     158.471 157.956 167.337  0.00  0.00    +0.000 A 
ATOM     17  C21 UNL     1     157.093 158.210 167.310  0.00  0.00    +0.000 A 
BRANCH  16  18
ATOM     18  C22 UNL     1     159.355 158.576 168.377  0.00  0.00    +0.000 C 
ATOM     19  F1  UNL     1     158.991 158.061 169.604  0.00  0.00    +0.000 F 
ATOM     20  F2  UNL     1     160.634 158.085 168.131  0.00  0.00    +0.000 F 
ATOM     21  F3  UNL     1     159.262 159.922 168.410  0.00  0.00    +0.000 F 
ENDBRANCH  16  18
ENDBRANCH   3  12
BRANCH  10  22
ATOM     22  C6  UNL     1     150.807 161.925 167.584  0.00  0.00    +0.000 C 
BRANCH  22  23
ATOM     23  C7  UNL     1     150.729 163.240 166.916  0.00  0.00    +0.000 A 
ATOM     24  C8  UNL     1     151.746 163.767 166.138  0.00  0.00    +0.000 A 
ATOM     25  N3  UNL     1     151.585 164.942 165.478  0.00  0.00    +0.000 NA
ATOM     26  C9  UNL     1     150.467 165.664 165.525  0.00  0.00    +0.000 A 
ATOM     27  C10 UNL     1     149.416 165.188 166.290  0.00  0.00    +0.000 A 
ATOM     28  C11 UNL     1     148.220 165.908 166.380  0.00  0.00    +0.000 A 
ATOM     29  C12 UNL     1     147.188 165.427 167.146  0.00  0.00    +0.000 A 
ATOM     30  C13 UNL     1     147.361 164.231 167.816  0.00  0.00    +0.000 A 
ATOM     31  C14 UNL     1     148.533 163.519 167.731  0.00  0.00    +0.000 A 
ATOM     32  C15 UNL     1     149.558 163.997 166.968  0.00  0.00    +0.000 A 
ENDBRANCH  22  23
ENDBRANCH  10  22
TORSDOF 4
ENDMDL
MODEL 5
REMARK VINA RESULT:      -7.1     19.404     22.881
REMARK  Name = ./3D_structures\o50_MMV1593533_3D.pdb
REMARK  5 active torsions:
REMARK  status: ('A' for Active; 'I' for Inactive)
REMARK    1  A    between atoms: C1_1  and  C2_2
REMARK    2  A    between atoms: C3_3  and  C16_22
REMARK    3  A    between atoms: N2_10  and  C6_11
REMARK    4  A    between atoms: C6_11  and  C7_12
REMARK    5  A    between atoms: C20_26  and  C22_28
REMARK                            x       y       z     vdW  Elec       q    Type
REMARK                         _______ _______ _______ _____ _____    ______ ____
ROOT
ATOM      1  C1  UNL     1     151.843 160.990 167.175  0.00  0.00    +0.000 C 
ATOM      2  C2  UNL     1     151.991 161.013 168.654  0.00  0.00    +0.000 C 
ATOM      3  C3  UNL     1     151.185 161.937 169.420  0.00  0.00    +0.000 C 
ATOM      4  O1  UNL     1     151.030 161.245 170.693  0.00  0.00    +0.000 OA
ATOM      5  C4  UNL     1     150.839 159.917 170.241  0.00  0.00    +0.000 C 
ATOM      6  O2  UNL     1     150.005 159.043 170.520  0.00  0.00    +0.000 OA
ATOM      7  N1  UNL     1     151.934 159.741 169.283  0.00  0.00    +0.000 N 
ATOM      8  C5  UNL     1     152.746 158.611 169.188  0.00  0.00    +0.000 C 
ATOM      9  O3  UNL     1     152.467 157.521 169.736  0.00  0.00    +0.000 OA
ATOM     10  N2  UNL     1     153.996 158.601 168.456  0.00  0.00    +0.000 N 
ATOM     11  H6  UNL     1     154.265 159.472 167.986  0.00  0.00    +0.000 HD
ENDROOT
BRANCH   3  12
ATOM     12  C16 UNL     1     149.826 162.323 169.100  0.00  0.00    +0.000 A 
ATOM     13  C17 UNL     1     149.207 161.634 168.029  0.00  0.00    +0.000 A 
ATOM     14  C18 UNL     1     147.937 161.978 167.638  0.00  0.00    +0.000 A 
ATOM     15  C19 UNL     1     147.240 162.956 168.244  0.00  0.00    +0.000 A 
ATOM     16  C20 UNL     1     147.800 163.637 169.273  0.00  0.00    +0.000 A 
ATOM     17  C21 UNL     1     149.098 163.305 169.686  0.00  0.00    +0.000 A 
BRANCH  16  18
ATOM     18  C22 UNL     1     147.023 164.723 169.954  0.00  0.00    +0.000 C 
ATOM     19  F1  UNL     1     147.925 165.583 170.546  0.00  0.00    +0.000 F 
ATOM     20  F2  UNL     1     146.422 165.457 168.935  0.00  0.00    +0.000 F 
ATOM     21  F3  UNL     1     146.172 164.252 170.889  0.00  0.00    +0.000 F 
ENDBRANCH  16  18
ENDBRANCH   3  12
BRANCH  10  22
ATOM     22  C6  UNL     1     154.801 157.418 168.394  0.00  0.00    +0.000 C 
BRANCH  22  23
ATOM     23  C7  UNL     1     155.905 157.444 167.413  0.00  0.00    +0.000 A 
ATOM     24  C8  UNL     1     155.731 157.225 166.057  0.00  0.00    +0.000 A 
ATOM     25  N3  UNL     1     156.768 157.346 165.190  0.00  0.00    +0.000 NA
ATOM     26  C9  UNL     1     158.003 157.677 165.564  0.00  0.00    +0.000 A 
ATOM     27  C10 UNL     1     158.237 157.906 166.909  0.00  0.00    +0.000 A 
ATOM     28  C11 UNL     1     159.517 158.251 167.357  0.00  0.00    +0.000 A 
ATOM     29  C12 UNL     1     159.736 158.471 168.694  0.00  0.00    +0.000 A 
ATOM     30  C13 UNL     1     158.674 158.344 169.570  0.00  0.00    +0.000 A 
ATOM     31  C14 UNL     1     157.416 158.006 169.135  0.00  0.00    +0.000 A 
ATOM     32  C15 UNL     1     157.199 157.789 167.806  0.00  0.00    +0.000 A 
ENDBRANCH  22  23
ENDBRANCH  10  22
TORSDOF 4
ENDMDL
MODEL 6
REMARK VINA RESULT:      -7.1     16.677     20.228
REMARK  Name = ./3D_structures\o50_MMV1593533_3D.pdb
REMARK  5 active torsions:
REMARK  status: ('A' for Active; 'I' for Inactive)
REMARK    1  A    between atoms: C1_1  and  C2_2
REMARK    2  A    between atoms: C3_3  and  C16_22
REMARK    3  A    between atoms: N2_10  and  C6_11
REMARK    4  A    between atoms: C6_11  and  C7_12
REMARK    5  A    between atoms: C20_26  and  C22_28
REMARK                            x       y       z     vdW  Elec       q    Type
REMARK                         _______ _______ _______ _____ _____    ______ ____
ROOT
ATOM      1  C1  UNL     1     155.526 160.464 168.786  0.00  0.00    +0.000 C 
ATOM      2  C2  UNL     1     156.195 160.619 170.103  0.00  0.00    +0.000 C 
ATOM      3  C3  UNL     1     155.387 160.917 171.265  0.00  0.00    +0.000 C 
ATOM      4  O1  UNL     1     156.149 160.309 172.348  0.00  0.00    +0.000 OA
ATOM      5  C4  UNL     1     156.567 159.109 171.724  0.00  0.00    +0.000 C 
ATOM      6  O2  UNL     1     156.543 157.921 172.080  0.00  0.00    +0.000 OA
ATOM      7  N1  UNL     1     157.101 159.579 170.443  0.00  0.00    +0.000 N 
ATOM      8  C5  UNL     1     158.288 159.140 169.855  0.00  0.00    +0.000 C 
ATOM      9  O3  UNL     1     158.897 158.113 170.231  0.00  0.00    +0.000 OA
ATOM     10  N2  UNL     1     158.931 159.844 168.765  0.00  0.00    +0.000 N 
ATOM     11  H6  UNL     1     158.466 160.689 168.420  0.00  0.00    +0.000 HD
ENDROOT
BRANCH   3  12
ATOM     12  C16 UNL     1     154.047 160.419 171.499  0.00  0.00    +0.000 A 
ATOM     13  C17 UNL     1     153.490 160.678 172.774  0.00  0.00    +0.000 A 
ATOM     14  C18 UNL     1     152.243 160.197 173.086  0.00  0.00    +0.000 A 
ATOM     15  C19 UNL     1     151.511 159.481 172.212  0.00  0.00    +0.000 A 
ATOM     16  C20 UNL     1     152.012 159.215 170.981  0.00  0.00    +0.000 A 
ATOM     17  C21 UNL     1     153.286 159.694 170.644  0.00  0.00    +0.000 A 
BRANCH  16  18
ATOM     18  C22 UNL     1     151.196 158.424 170.004  0.00  0.00    +0.000 C 
ATOM     19  F1  UNL     1     149.877 158.486 170.404  0.00  0.00    +0.000 F 
ATOM     20  F2  UNL     1     151.255 159.126 168.803  0.00  0.00    +0.000 F 
ATOM     21  F3  UNL     1     151.581 157.133 169.923  0.00  0.00    +0.000 F 
ENDBRANCH  16  18
ENDBRANCH   3  12
BRANCH  10  22
ATOM     22  C6  UNL     1     160.155 159.358 168.201  0.00  0.00    +0.000 C 
BRANCH  22  23
ATOM     23  C7  UNL     1     160.012 158.478 167.023  0.00  0.00    +0.000 A 
ATOM     24  C8  UNL     1     158.886 158.451 166.218  0.00  0.00    +0.000 A 
ATOM     25  N3  UNL     1     158.843 157.685 165.099  0.00  0.00    +0.000 NA
ATOM     26  C9  UNL     1     159.855 156.917 164.696  0.00  0.00    +0.000 A 
ATOM     27  C10 UNL     1     161.007 156.902 165.463  0.00  0.00    +0.000 A 
ATOM     28  C11 UNL     1     162.098 156.110 165.089  0.00  0.00    +0.000 A 
ATOM     29  C12 UNL     1     163.232 156.101 165.862  0.00  0.00    +0.000 A 
ATOM     30  C13 UNL     1     163.265 156.883 167.001  0.00  0.00    +0.000 A 
ATOM     31  C14 UNL     1     162.197 157.663 167.372  0.00  0.00    +0.000 A 
ATOM     32  C15 UNL     1     161.071 157.672 166.603  0.00  0.00    +0.000 A 
ENDBRANCH  22  23
ENDBRANCH  10  22
TORSDOF 4
ENDMDL
MODEL 7
REMARK VINA RESULT:      -7.1     20.410     23.834
REMARK  Name = ./3D_structures\o50_MMV1593533_3D.pdb
REMARK  5 active torsions:
REMARK  status: ('A' for Active; 'I' for Inactive)
REMARK    1  A    between atoms: C1_1  and  C2_2
REMARK    2  A    between atoms: C3_3  and  C16_22
REMARK    3  A    between atoms: N2_10  and  C6_11
REMARK    4  A    between atoms: C6_11  and  C7_12
REMARK    5  A    between atoms: C20_26  and  C22_28
REMARK                            x       y       z     vdW  Elec       q    Type
REMARK                         _______ _______ _______ _____ _____    ______ ____
ROOT
ATOM      1  C1  UNL     1     150.741 162.356 170.013  0.00  0.00    +0.000 C 
ATOM      2  C2  UNL     1     150.212 161.476 168.938  0.00  0.00    +0.000 C 
ATOM      3  C3  UNL     1     149.130 161.961 168.111  0.00  0.00    +0.000 C 
ATOM      4  O1  UNL     1     149.358 161.269 166.849  0.00  0.00    +0.000 OA
ATOM      5  C4  UNL     1     150.770 161.349 166.766  0.00  0.00    +0.000 C 
ATOM      6  O2  UNL     1     151.543 161.688 165.857  0.00  0.00    +0.000 OA
ATOM      7  N1  UNL     1     151.198 160.901 168.093  0.00  0.00    +0.000 N 
ATOM      8  C5  UNL     1     152.247 160.016 168.344  0.00  0.00    +0.000 C 
ATOM      9  O3  UNL     1     153.102 159.708 167.483  0.00  0.00    +0.000 OA
ATOM     10  N2  UNL     1     152.434 159.362 169.623  0.00  0.00    +0.000 N 
ATOM     11  H6  UNL     1     151.760 159.587 170.362  0.00  0.00    +0.000 HD
ENDROOT
BRANCH   3  12
ATOM     12  C16 UNL     1     148.950 163.336 167.693  0.00  0.00    +0.000 A 
ATOM     13  C17 UNL     1     150.014 164.227 167.970  0.00  0.00    +0.000 A 
ATOM     14  C18 UNL     1     149.897 165.555 167.646  0.00  0.00    +0.000 A 
ATOM     15  C19 UNL     1     148.794 166.055 167.058  0.00  0.00    +0.000 A 
ATOM     16  C20 UNL     1     147.755 165.231 166.777  0.00  0.00    +0.000 A 
ATOM     17  C21 UNL     1     147.853 163.872 167.104  0.00  0.00    +0.000 A 
BRANCH  16  18
ATOM     18  C22 UNL     1     146.528 165.785 166.117  0.00  0.00    +0.000 C 
ATOM     19  F1  UNL     1     145.648 166.168 167.109  0.00  0.00    +0.000 F 
ATOM     20  F2  UNL     1     146.929 166.966 165.498  0.00  0.00    +0.000 F 
ATOM     21  F3  UNL     1     145.925 164.896 165.301  0.00  0.00    +0.000 F 
ENDBRANCH  16  18
ENDBRANCH   3  12
BRANCH  10  22
ATOM     22  C6  UNL     1     153.523 158.454 169.830  0.00  0.00    +0.000 C 
BRANCH  22  23
ATOM     23  C7  UNL     1     154.720 159.028 170.477  0.00  0.00    +0.000 A 
ATOM     24  C8  UNL     1     154.671 159.845 171.593  0.00  0.00    +0.000 A 
ATOM     25  N3  UNL     1     155.809 160.274 172.197  0.00  0.00    +0.000 NA
ATOM     26  C9  UNL     1     157.030 159.951 171.776  0.00  0.00    +0.000 A 
ATOM     27  C10 UNL     1     157.141 159.137 170.662  0.00  0.00    +0.000 A 
ATOM     28  C11 UNL     1     158.400 158.772 170.173  0.00  0.00    +0.000 A 
ATOM     29  C12 UNL     1     158.495 157.968 169.064  0.00  0.00    +0.000 A 
ATOM     30  C13 UNL     1     157.332 157.538 168.454  0.00  0.00    +0.000 A 
ATOM     31  C14 UNL     1     156.094 157.894 168.931  0.00  0.00    +0.000 A 
ATOM     32  C15 UNL     1     156.000 158.691 170.033  0.00  0.00    +0.000 A 
ENDBRANCH  22  23
ENDBRANCH  10  22
TORSDOF 4
ENDMDL
MODEL 8
REMARK VINA RESULT:      -7.0     18.079     19.842
REMARK  Name = ./3D_structures\o50_MMV1593533_3D.pdb
REMARK  5 active torsions:
REMARK  status: ('A' for Active; 'I' for Inactive)
REMARK    1  A    between atoms: C1_1  and  C2_2
REMARK    2  A    between atoms: C3_3  and  C16_22
REMARK    3  A    between atoms: N2_10  and  C6_11
REMARK    4  A    between atoms: C6_11  and  C7_12
REMARK    5  A    between atoms: C20_26  and  C22_28
REMARK                            x       y       z     vdW  Elec       q    Type
REMARK                         _______ _______ _______ _____ _____    ______ ____
ROOT
ATOM      1  C1  UNL     1     158.081 161.591 168.882  0.00  0.00    +0.000 C 
ATOM      2  C2  UNL     1     158.792 160.400 169.416  0.00  0.00    +0.000 C 
ATOM      3  C3  UNL     1     158.013 159.276 169.886  0.00  0.00    +0.000 C 
ATOM      4  O1  UNL     1     158.901 158.147 169.638  0.00  0.00    +0.000 OA
ATOM      5  C4  UNL     1     159.435 158.514 168.378  0.00  0.00    +0.000 C 
ATOM      6  O2  UNL     1     159.579 157.897 167.312  0.00  0.00    +0.000 OA
ATOM      7  N1  UNL     1     159.838 159.906 168.591  0.00  0.00    +0.000 N 
ATOM      8  C5  UNL     1     161.039 160.471 168.162  0.00  0.00    +0.000 C 
ATOM      9  O3  UNL     1     161.792 159.922 167.326  0.00  0.00    +0.000 OA
ATOM     10  N2  UNL     1     161.532 161.739 168.657  0.00  0.00    +0.000 N 
ATOM     11  H6  UNL     1     160.946 162.230 169.340  0.00  0.00    +0.000 HD
ENDROOT
BRANCH   3  12
ATOM     12  C16 UNL     1     156.761 158.830 169.311  0.00  0.00    +0.000 A 
ATOM     13  C17 UNL     1     155.850 158.198 170.191  0.00  0.00    +0.000 A 
ATOM     14  C18 UNL     1     154.662 157.707 169.710  0.00  0.00    +0.000 A 
ATOM     15  C19 UNL     1     154.318 157.807 168.412  0.00  0.00    +0.000 A 
ATOM     16  C20 UNL     1     155.165 158.406 167.541  0.00  0.00    +0.000 A 
ATOM     17  C21 UNL     1     156.385 158.911 168.012  0.00  0.00    +0.000 A 
BRANCH  16  18
ATOM     18  C22 UNL     1     154.781 158.525 166.097  0.00  0.00    +0.000 C 
ATOM     19  F1  UNL     1     155.726 159.310 165.469  0.00  0.00    +0.000 F 
ATOM     20  F2  UNL     1     154.935 157.251 165.556  0.00  0.00    +0.000 F 
ATOM     21  F3  UNL     1     153.558 159.069 165.923  0.00  0.00    +0.000 F 
ENDBRANCH  16  18
ENDBRANCH   3  12
BRANCH  10  22
ATOM     22  C6  UNL     1     162.776 162.275 168.191  0.00  0.00    +0.000 C 
BRANCH  22  23
ATOM     23  C7  UNL     1     163.778 162.568 169.236  0.00  0.00    +0.000 A 
ATOM     24  C8  UNL     1     163.810 163.749 169.958  0.00  0.00    +0.000 A 
ATOM     25  N3  UNL     1     164.701 163.930 170.966  0.00  0.00    +0.000 NA
ATOM     26  C9  UNL     1     165.592 163.010 171.332  0.00  0.00    +0.000 A 
ATOM     27  C10 UNL     1     165.608 161.809 170.644  0.00  0.00    +0.000 A 
ATOM     28  C11 UNL     1     166.527 160.810 170.984  0.00  0.00    +0.000 A 
ATOM     29  C12 UNL     1     166.535 159.625 170.290  0.00  0.00    +0.000 A 
ATOM     30  C13 UNL     1     165.626 159.451 169.264  0.00  0.00    +0.000 A 
ATOM     31  C14 UNL     1     164.722 160.429 168.927  0.00  0.00    +0.000 A 
ATOM     32  C15 UNL     1     164.713 161.605 169.618  0.00  0.00    +0.000 A 
ENDBRANCH  22  23
ENDBRANCH  10  22
TORSDOF 4
ENDMDL
MODEL 9
REMARK VINA RESULT:      -7.0     19.677     22.905
REMARK  Name = ./3D_structures\o50_MMV1593533_3D.pdb
REMARK  5 active torsions:
REMARK  status: ('A' for Active; 'I' for Inactive)
REMARK    1  A    between atoms: C1_1  and  C2_2
REMARK    2  A    between atoms: C3_3  and  C16_22
REMARK    3  A    between atoms: N2_10  and  C6_11
REMARK    4  A    between atoms: C6_11  and  C7_12
REMARK    5  A    between atoms: C20_26  and  C22_28
REMARK                            x       y       z     vdW  Elec       q    Type
REMARK                         _______ _______ _______ _____ _____    ______ ____
ROOT
ATOM      1  C1  UNL     1     153.833 161.219 167.319  0.00  0.00    +0.000 C 
ATOM      2  C2  UNL     1     153.049 160.300 168.185  0.00  0.00    +0.000 C 
ATOM      3  C3  UNL     1     153.464 158.919 168.290  0.00  0.00    +0.000 C 
ATOM      4  O1  UNL     1     153.019 158.554 169.629  0.00  0.00    +0.000 OA
ATOM      5  C4  UNL     1     153.348 159.735 170.339  0.00  0.00    +0.000 C 
ATOM      6  O2  UNL     1     153.946 159.938 171.406  0.00  0.00    +0.000 OA
ATOM      7  N1  UNL     1     152.783 160.789 169.492  0.00  0.00    +0.000 N 
ATOM      8  C5  UNL     1     152.061 161.890 169.952  0.00  0.00    +0.000 C 
ATOM      9  O3  UNL     1     152.035 162.236 171.155  0.00  0.00    +0.000 OA
ATOM     10  N2  UNL     1     151.262 162.725 169.080  0.00  0.00    +0.000 N 
ATOM     11  H6  UNL     1     151.255 162.483 168.084  0.00  0.00    +0.000 HD
ENDROOT
BRANCH   3  12
ATOM     12  C16 UNL     1     154.836 158.455 168.272  0.00  0.00    +0.000 A 
ATOM     13  C17 UNL     1     155.149 157.440 167.337  0.00  0.00    +0.000 A 
ATOM     14  C18 UNL     1     156.417 156.917 167.293  0.00  0.00    +0.000 A 
ATOM     15  C19 UNL     1     157.396 157.342 168.113  0.00  0.00    +0.000 A 
ATOM     16  C20 UNL     1     157.133 158.313 169.021  0.00  0.00    +0.000 A 
ATOM     17  C21 UNL     1     155.843 158.857 169.085  0.00  0.00    +0.000 A 
BRANCH  16  18
ATOM     18  C22 UNL     1     158.224 158.792 169.931  0.00  0.00    +0.000 C 
ATOM     19  F1  UNL     1     157.985 158.275 171.188  0.00  0.00    +0.000 F 
ATOM     20  F2  UNL     1     159.389 158.171 169.489  0.00  0.00    +0.000 F 
ATOM     21  F3  UNL     1     158.293 160.138 170.005  0.00  0.00    +0.000 F 
ENDBRANCH  16  18
ENDBRANCH   3  12
BRANCH  10  22
ATOM     22  C6  UNL     1     150.530 163.841 169.601  0.00  0.00    +0.000 C 
BRANCH  22  23
ATOM     23  C7  UNL     1     149.707 164.581 168.623  0.00  0.00    +0.000 A 
ATOM     24  C8  UNL     1     150.236 165.288 167.556  0.00  0.00    +0.000 A 
ATOM     25  N3  UNL     1     149.428 165.879 166.639  0.00  0.00    +0.000 NA
ATOM     26  C9  UNL     1     148.098 165.827 166.691  0.00  0.00    +0.000 A 
ATOM     27  C10 UNL     1     147.513 165.135 167.737  0.00  0.00    +0.000 A 
ATOM     28  C11 UNL     1     146.120 165.053 167.843  0.00  0.00    +0.000 A 
ATOM     29  C12 UNL     1     145.554 164.368 168.889  0.00  0.00    +0.000 A 
ATOM     30  C13 UNL     1     146.384 163.772 169.819  0.00  0.00    +0.000 A 
ATOM     31  C14 UNL     1     147.751 163.849 169.719  0.00  0.00    +0.000 A 
ATOM     32  C15 UNL     1     148.314 164.528 168.679  0.00  0.00    +0.000 A 
ENDBRANCH  22  23
ENDBRANCH  10  22
TORSDOF 4
ENDMDL
