MODEL 1
REMARK VINA RESULT:      -5.9      0.000      0.000
REMARK  Name = ./3D_structures\o51_MMV422940_3D.pdb
REMARK  2 active torsions:
REMARK  status: ('A' for Active; 'I' for Inactive)
REMARK    1  A    between atoms: O1_1  and  C1_2
REMARK    2  A    between atoms: C3_4  and  C4_7
REMARK                            x       y       z     vdW  Elec       q    Type
REMARK                         _______ _______ _______ _____ _____    ______ ____
ROOT
ATOM      1  C4  UNL     1     149.423 152.967 170.408  0.00  0.00    +0.000 A 
ATOM      2  C5  UNL     1     150.282 154.065 170.622  0.00  0.00    +0.000 A 
ATOM      3  C6  UNL     1     150.486 154.627 171.850  0.00  0.00    +0.000 A 
ATOM      4  C7  UNL     1     149.850 154.138 172.959  0.00  0.00    +0.000 A 
ATOM      5  C8  UNL     1     148.996 153.052 172.795  0.00  0.00    +0.000 A 
ATOM      6  C9  UNL     1     148.369 152.522 173.920  0.00  0.00    +0.000 A 
ATOM      7  C10 UNL     1     147.545 151.428 173.811  0.00  0.00    +0.000 A 
ATOM      8  C11 UNL     1     147.352 150.866 172.567  0.00  0.00    +0.000 A 
ATOM      9  C12 UNL     1     147.969 151.388 171.453  0.00  0.00    +0.000 A 
ATOM     10  C13 UNL     1     148.804 152.497 171.543  0.00  0.00    +0.000 A 
ENDROOT
BRANCH   1  13
ATOM     11  C1  UNL     1     148.771 151.842 166.941  0.00  0.00    +0.000 A 
ATOM     12  C2  UNL     1     148.281 152.323 168.166  0.00  0.00    +0.000 A 
ATOM     13  C3  UNL     1     149.303 152.447 169.065  0.00  0.00    +0.000 A 
ATOM     14  N1  UNL     1     150.404 152.037 168.354  0.00  0.00    +0.000 N 
ATOM     15  N2  UNL     1     150.075 151.692 167.131  0.00  0.00    +0.000 NA
ATOM     16  H3  UNL     1     151.360 152.020 168.793  0.00  0.00    +0.000 HD
BRANCH  11  17
ATOM     17  O1  UNL     1     148.001 151.599 165.808  0.00  0.00    +0.000 OA
ATOM     18  H1  UNL     1     147.235 150.969 165.850  0.00  0.00    +0.000 HD
ENDBRANCH  11  17
ENDBRANCH   1  13
TORSDOF 2
ENDMDL
MODEL 2
REMARK VINA RESULT:      -5.9     12.551     13.484
REMARK  Name = ./3D_structures\o51_MMV422940_3D.pdb
REMARK  2 active torsions:
REMARK  status: ('A' for Active; 'I' for Inactive)
REMARK    1  A    between atoms: O1_1  and  C1_2
REMARK    2  A    between atoms: C3_4  and  C4_7
REMARK                            x       y       z     vdW  Elec       q    Type
REMARK                         _______ _______ _______ _____ _____    ______ ____
ROOT
ATOM      1  C4  UNL     1     145.034 163.882 165.476  0.00  0.00    +0.000 A 
ATOM      2  C5  UNL     1     144.611 163.300 164.263  0.00  0.00    +0.000 A 
ATOM      3  C6  UNL     1     144.334 161.970 164.127  0.00  0.00    +0.000 A 
ATOM      4  C7  UNL     1     144.458 161.117 165.191  0.00  0.00    +0.000 A 
ATOM      5  C8  UNL     1     144.869 161.649 166.409  0.00  0.00    +0.000 A 
ATOM      6  C9  UNL     1     144.966 160.799 167.508  0.00  0.00    +0.000 A 
ATOM      7  C10 UNL     1     145.333 161.287 168.739  0.00  0.00    +0.000 A 
ATOM      8  C11 UNL     1     145.604 162.633 168.864  0.00  0.00    +0.000 A 
ATOM      9  C12 UNL     1     145.511 163.475 167.779  0.00  0.00    +0.000 A 
ATOM     10  C13 UNL     1     145.144 162.999 166.525  0.00  0.00    +0.000 A 
ENDROOT
BRANCH   1  13
ATOM     11  C1  UNL     1     145.307 167.567 165.723  0.00  0.00    +0.000 A 
ATOM     12  C2  UNL     1     144.504 166.416 165.684  0.00  0.00    +0.000 A 
ATOM     13  C3  UNL     1     145.279 165.307 165.499  0.00  0.00    +0.000 A 
ATOM     14  N1  UNL     1     146.553 165.816 165.432  0.00  0.00    +0.000 N 
ATOM     15  N2  UNL     1     146.546 167.122 165.563  0.00  0.00    +0.000 NA
ATOM     16  H3  UNL     1     147.384 165.186 165.289  0.00  0.00    +0.000 HD
BRANCH  11  17
ATOM     17  O1  UNL     1     144.842 168.866 165.896  0.00  0.00    +0.000 OA
ATOM     18  H1  UNL     1     145.187 169.601 165.326  0.00  0.00    +0.000 HD
ENDBRANCH  11  17
ENDBRANCH   1  13
TORSDOF 2
ENDMDL
MODEL 3
REMARK VINA RESULT:      -5.7     12.581     13.709
REMARK  Name = ./3D_structures\o51_MMV422940_3D.pdb
REMARK  2 active torsions:
REMARK  status: ('A' for Active; 'I' for Inactive)
REMARK    1  A    between atoms: O1_1  and  C1_2
REMARK    2  A    between atoms: C3_4  and  C4_7
REMARK                            x       y       z     vdW  Elec       q    Type
REMARK                         _______ _______ _______ _____ _____    ______ ____
ROOT
ATOM      1  C4  UNL     1     145.270 163.804 166.202  0.00  0.00    +0.000 A 
ATOM      2  C5  UNL     1     145.530 163.331 167.505  0.00  0.00    +0.000 A 
ATOM      3  C6  UNL     1     145.380 162.023 167.871  0.00  0.00    +0.000 A 
ATOM      4  C7  UNL     1     144.960 161.087 166.964  0.00  0.00    +0.000 A 
ATOM      5  C8  UNL     1     144.695 161.509 165.666  0.00  0.00    +0.000 A 
ATOM      6  C9  UNL     1     144.299 160.561 164.725  0.00  0.00    +0.000 A 
ATOM      7  C10 UNL     1     144.062 160.926 163.422  0.00  0.00    +0.000 A 
ATOM      8  C11 UNL     1     144.222 162.247 163.064  0.00  0.00    +0.000 A 
ATOM      9  C12 UNL     1     144.611 163.187 163.992  0.00  0.00    +0.000 A 
ATOM     10  C13 UNL     1     144.853 162.837 165.317  0.00  0.00    +0.000 A 
ENDROOT
BRANCH   1  13
ATOM     11  C1  UNL     1     145.469 167.469 165.705  0.00  0.00    +0.000 A 
ATOM     12  C2  UNL     1     144.692 166.322 165.937  0.00  0.00    +0.000 A 
ATOM     13  C3  UNL     1     145.483 165.208 165.932  0.00  0.00    +0.000 A 
ATOM     14  N1  UNL     1     146.739 165.710 165.697  0.00  0.00    +0.000 N 
ATOM     15  N2  UNL     1     146.709 167.016 165.569  0.00  0.00    +0.000 NA
ATOM     16  H3  UNL     1     147.576 165.075 165.635  0.00  0.00    +0.000 HD
BRANCH  11  17
ATOM     17  O1  UNL     1     144.983 168.770 165.645  0.00  0.00    +0.000 OA
ATOM     18  H1  UNL     1     145.611 169.536 165.584  0.00  0.00    +0.000 HD
ENDBRANCH  11  17
ENDBRANCH   1  13
TORSDOF 2
ENDMDL
MODEL 4
REMARK VINA RESULT:      -5.7      7.092      9.143
REMARK  Name = ./3D_structures\o51_MMV422940_3D.pdb
REMARK  2 active torsions:
REMARK  status: ('A' for Active; 'I' for Inactive)
REMARK    1  A    between atoms: O1_1  and  C1_2
REMARK    2  A    between atoms: C3_4  and  C4_7
REMARK                            x       y       z     vdW  Elec       q    Type
REMARK                         _______ _______ _______ _____ _____    ______ ____
ROOT
ATOM      1  C4  UNL     1     154.533 157.957 168.850  0.00  0.00    +0.000 A 
ATOM      2  C5  UNL     1     154.726 157.487 167.535  0.00  0.00    +0.000 A 
ATOM      3  C6  UNL     1     155.960 157.275 166.988  0.00  0.00    +0.000 A 
ATOM      4  C7  UNL     1     157.096 157.517 167.712  0.00  0.00    +0.000 A 
ATOM      5  C8  UNL     1     156.954 157.979 169.016  0.00  0.00    +0.000 A 
ATOM      6  C9  UNL     1     158.101 158.197 169.775  0.00  0.00    +0.000 A 
ATOM      7  C10 UNL     1     158.007 158.619 171.079  0.00  0.00    +0.000 A 
ATOM      8  C11 UNL     1     156.756 158.823 171.621  0.00  0.00    +0.000 A 
ATOM      9  C12 UNL     1     155.620 158.610 170.873  0.00  0.00    +0.000 A 
ATOM     10  C13 UNL     1     155.695 158.186 169.550  0.00  0.00    +0.000 A 
ENDROOT
BRANCH   1  13
ATOM     11  C1  UNL     1     151.034 158.698 169.809  0.00  0.00    +0.000 A 
ATOM     12  C2  UNL     1     152.263 159.138 169.291  0.00  0.00    +0.000 A 
ATOM     13  C3  UNL     1     153.177 158.124 169.322  0.00  0.00    +0.000 A 
ATOM     14  N1  UNL     1     152.473 157.076 169.863  0.00  0.00    +0.000 N 
ATOM     15  N2  UNL     1     151.238 157.429 170.136  0.00  0.00    +0.000 NA
ATOM     16  H3  UNL     1     152.924 156.138 170.015  0.00  0.00    +0.000 HD
BRANCH  11  17
ATOM     17  O1  UNL     1     149.886 159.475 169.925  0.00  0.00    +0.000 OA
ATOM     18  H1  UNL     1     149.063 159.095 170.328  0.00  0.00    +0.000 HD
ENDBRANCH  11  17
ENDBRANCH   1  13
TORSDOF 2
ENDMDL
MODEL 5
REMARK VINA RESULT:      -5.4      8.469      9.909
REMARK  Name = ./3D_structures\o51_MMV422940_3D.pdb
REMARK  2 active torsions:
REMARK  status: ('A' for Active; 'I' for Inactive)
REMARK    1  A    between atoms: O1_1  and  C1_2
REMARK    2  A    between atoms: C3_4  and  C4_7
REMARK                            x       y       z     vdW  Elec       q    Type
REMARK                         _______ _______ _______ _____ _____    ______ ____
ROOT
ATOM      1  C4  UNL     1     155.935 157.618 167.581  0.00  0.00    +0.000 A 
ATOM      2  C5  UNL     1     154.525 157.629 167.589  0.00  0.00    +0.000 A 
ATOM      3  C6  UNL     1     153.784 157.934 168.695  0.00  0.00    +0.000 A 
ATOM      4  C7  UNL     1     154.393 158.251 169.879  0.00  0.00    +0.000 A 
ATOM      5  C8  UNL     1     155.784 158.256 169.917  0.00  0.00    +0.000 A 
ATOM      6  C9  UNL     1     156.416 158.611 171.106  0.00  0.00    +0.000 A 
ATOM      7  C10 UNL     1     157.787 158.664 171.179  0.00  0.00    +0.000 A 
ATOM      8  C11 UNL     1     158.524 158.360 170.055  0.00  0.00    +0.000 A 
ATOM      9  C12 UNL     1     157.901 158.008 168.878  0.00  0.00    +0.000 A 
ATOM     10  C13 UNL     1     156.514 157.945 168.786  0.00  0.00    +0.000 A 
ENDROOT
BRANCH   1  13
ATOM     11  C1  UNL     1     157.478 156.436 164.429  0.00  0.00    +0.000 A 
ATOM     12  C2  UNL     1     156.896 156.142 165.673  0.00  0.00    +0.000 A 
ATOM     13  C3  UNL     1     156.608 157.297 166.343  0.00  0.00    +0.000 A 
ATOM     14  N1  UNL     1     157.024 158.279 165.478  0.00  0.00    +0.000 N 
ATOM     15  N2  UNL     1     157.523 157.761 164.380  0.00  0.00    +0.000 NA
ATOM     16  H3  UNL     1     156.930 159.298 165.726  0.00  0.00    +0.000 HD
BRANCH  11  17
ATOM     17  O1  UNL     1     157.895 155.494 163.494  0.00  0.00    +0.000 OA
ATOM     18  H1  UNL     1     157.520 154.576 163.508  0.00  0.00    +0.000 HD
ENDBRANCH  11  17
ENDBRANCH   1  13
TORSDOF 2
ENDMDL
MODEL 6
REMARK VINA RESULT:      -5.3     10.493     12.170
REMARK  Name = ./3D_structures\o51_MMV422940_3D.pdb
REMARK  2 active torsions:
REMARK  status: ('A' for Active; 'I' for Inactive)
REMARK    1  A    between atoms: O1_1  and  C1_2
REMARK    2  A    between atoms: C3_4  and  C4_7
REMARK                            x       y       z     vdW  Elec       q    Type
REMARK                         _______ _______ _______ _____ _____    ______ ____
ROOT
ATOM      1  C4  UNL     1     158.701 157.971 167.754  0.00  0.00    +0.000 A 
ATOM      2  C5  UNL     1     158.050 157.360 166.662  0.00  0.00    +0.000 A 
ATOM      3  C6  UNL     1     156.789 156.843 166.736  0.00  0.00    +0.000 A 
ATOM      4  C7  UNL     1     156.079 156.894 167.905  0.00  0.00    +0.000 A 
ATOM      5  C8  UNL     1     156.680 157.491 169.008  0.00  0.00    +0.000 A 
ATOM      6  C9  UNL     1     155.956 157.581 170.195  0.00  0.00    +0.000 A 
ATOM      7  C10 UNL     1     156.497 158.194 171.299  0.00  0.00    +0.000 A 
ATOM      8  C11 UNL     1     157.769 158.718 171.210  0.00  0.00    +0.000 A 
ATOM      9  C12 UNL     1     158.487 158.629 170.039  0.00  0.00    +0.000 A 
ATOM     10  C13 UNL     1     157.958 158.009 168.912  0.00  0.00    +0.000 A 
ENDROOT
BRANCH   1  13
ATOM     11  C1  UNL     1     162.226 158.941 167.163  0.00  0.00    +0.000 A 
ATOM     12  C2  UNL     1     161.290 157.968 167.550  0.00  0.00    +0.000 A 
ATOM     13  C3  UNL     1     160.031 158.498 167.547  0.00  0.00    +0.000 A 
ATOM     14  N1  UNL     1     160.233 159.798 167.152  0.00  0.00    +0.000 N 
ATOM     15  N2  UNL     1     161.506 160.032 166.936  0.00  0.00    +0.000 NA
ATOM     16  H3  UNL     1     159.428 160.469 167.058  0.00  0.00    +0.000 HD
BRANCH  11  17
ATOM     17  O1  UNL     1     163.598 158.741 167.060  0.00  0.00    +0.000 OA
ATOM     18  H1  UNL     1     163.959 158.068 166.427  0.00  0.00    +0.000 HD
ENDBRANCH  11  17
ENDBRANCH   1  13
TORSDOF 2
ENDMDL
MODEL 7
REMARK VINA RESULT:      -5.3      8.435      9.891
REMARK  Name = ./3D_structures\o51_MMV422940_3D.pdb
REMARK  2 active torsions:
REMARK  status: ('A' for Active; 'I' for Inactive)
REMARK    1  A    between atoms: O1_1  and  C1_2
REMARK    2  A    between atoms: C3_4  and  C4_7
REMARK                            x       y       z     vdW  Elec       q    Type
REMARK                         _______ _______ _______ _____ _____    ______ ____
ROOT
ATOM      1  C4  UNL     1     153.867 159.773 166.481  0.00  0.00    +0.000 A 
ATOM      2  C5  UNL     1     154.829 158.865 165.991  0.00  0.00    +0.000 A 
ATOM      3  C6  UNL     1     155.211 157.742 166.667  0.00  0.00    +0.000 A 
ATOM      4  C7  UNL     1     154.664 157.437 167.884  0.00  0.00    +0.000 A 
ATOM      5  C8  UNL     1     153.709 158.303 168.405  0.00  0.00    +0.000 A 
ATOM      6  C9  UNL     1     153.119 157.988 169.627  0.00  0.00    +0.000 A 
ATOM      7  C10 UNL     1     152.144 158.795 170.162  0.00  0.00    +0.000 A 
ATOM      8  C11 UNL     1     151.763 159.923 169.468  0.00  0.00    +0.000 A 
ATOM      9  C12 UNL     1     152.345 160.238 168.260  0.00  0.00    +0.000 A 
ATOM     10  C13 UNL     1     153.335 159.435 167.704  0.00  0.00    +0.000 A 
ENDROOT
BRANCH   1  13
ATOM     11  C1  UNL     1     152.632 162.562 164.382  0.00  0.00    +0.000 A 
ATOM     12  C2  UNL     1     152.498 161.239 164.832  0.00  0.00    +0.000 A 
ATOM     13  C3  UNL     1     153.532 160.918 165.665  0.00  0.00    +0.000 A 
ATOM     14  N1  UNL     1     154.279 162.070 165.704  0.00  0.00    +0.000 N 
ATOM     15  N2  UNL     1     153.742 163.006 164.957  0.00  0.00    +0.000 NA
ATOM     16  H3  UNL     1     155.160 162.127 166.276  0.00  0.00    +0.000 HD
BRANCH  11  17
ATOM     17  O1  UNL     1     151.754 163.211 163.520  0.00  0.00    +0.000 OA
ATOM     18  H1  UNL     1     150.950 162.741 163.178  0.00  0.00    +0.000 HD
ENDBRANCH  11  17
ENDBRANCH   1  13
TORSDOF 2
ENDMDL
MODEL 8
REMARK VINA RESULT:      -5.2     11.673     12.866
REMARK  Name = ./3D_structures\o51_MMV422940_3D.pdb
REMARK  2 active torsions:
REMARK  status: ('A' for Active; 'I' for Inactive)
REMARK    1  A    between atoms: O1_1  and  C1_2
REMARK    2  A    between atoms: C3_4  and  C4_7
REMARK                            x       y       z     vdW  Elec       q    Type
REMARK                         _______ _______ _______ _____ _____    ______ ____
ROOT
ATOM      1  C4  UNL     1     146.950 163.670 167.106  0.00  0.00    +0.000 A 
ATOM      2  C5  UNL     1     148.342 163.832 167.260  0.00  0.00    +0.000 A 
ATOM      3  C6  UNL     1     149.009 164.966 166.895  0.00  0.00    +0.000 A 
ATOM      4  C7  UNL     1     148.339 166.027 166.348  0.00  0.00    +0.000 A 
ATOM      5  C8  UNL     1     146.963 165.913 166.180  0.00  0.00    +0.000 A 
ATOM      6  C9  UNL     1     146.263 166.997 165.657  0.00  0.00    +0.000 A 
ATOM      7  C10 UNL     1     144.899 166.943 165.508  0.00  0.00    +0.000 A 
ATOM      8  C11 UNL     1     144.236 165.795 165.885  0.00  0.00    +0.000 A 
ATOM      9  C12 UNL     1     144.925 164.721 166.402  0.00  0.00    +0.000 A 
ATOM     10  C13 UNL     1     146.307 164.756 166.557  0.00  0.00    +0.000 A 
ENDROOT
BRANCH   1  13
ATOM     11  C1  UNL     1     145.215 160.710 168.500  0.00  0.00    +0.000 A 
ATOM     12  C2  UNL     1     145.671 162.029 168.660  0.00  0.00    +0.000 A 
ATOM     13  C3  UNL     1     146.355 162.429 167.547  0.00  0.00    +0.000 A 
ATOM     14  N1  UNL     1     146.296 161.330 166.725  0.00  0.00    +0.000 N 
ATOM     15  N2  UNL     1     145.634 160.350 167.294  0.00  0.00    +0.000 NA
ATOM     16  H3  UNL     1     146.747 161.337 165.774  0.00  0.00    +0.000 HD
BRANCH  11  17
ATOM     17  O1  UNL     1     144.485 159.993 169.442  0.00  0.00    +0.000 OA
ATOM     18  H1  UNL     1     143.743 159.401 169.154  0.00  0.00    +0.000 HD
ENDBRANCH  11  17
ENDBRANCH   1  13
TORSDOF 2
ENDMDL
MODEL 9
REMARK VINA RESULT:      -5.2      8.650     10.246
REMARK  Name = ./3D_structures\o51_MMV422940_3D.pdb
REMARK  2 active torsions:
REMARK  status: ('A' for Active; 'I' for Inactive)
REMARK    1  A    between atoms: O1_1  and  C1_2
REMARK    2  A    between atoms: C3_4  and  C4_7
REMARK                            x       y       z     vdW  Elec       q    Type
REMARK                         _______ _______ _______ _____ _____    ______ ____
ROOT
ATOM      1  C4  UNL     1     152.989 160.256 167.194  0.00  0.00    +0.000 A 
ATOM      2  C5  UNL     1     152.159 160.264 168.334  0.00  0.00    +0.000 A 
ATOM      3  C6  UNL     1     152.240 159.329 169.326  0.00  0.00    +0.000 A 
ATOM      4  C7  UNL     1     153.156 158.314 169.258  0.00  0.00    +0.000 A 
ATOM      5  C8  UNL     1     153.999 158.269 168.153  0.00  0.00    +0.000 A 
ATOM      6  C9  UNL     1     154.959 157.262 168.087  0.00  0.00    +0.000 A 
ATOM      7  C10 UNL     1     155.836 157.200 167.032  0.00  0.00    +0.000 A 
ATOM      8  C11 UNL     1     155.748 158.153 166.040  0.00  0.00    +0.000 A 
ATOM      9  C12 UNL     1     154.800 159.149 166.101  0.00  0.00    +0.000 A 
ATOM     10  C13 UNL     1     153.901 159.226 167.160  0.00  0.00    +0.000 A 
ENDROOT
BRANCH   1  13
ATOM     11  C1  UNL     1     152.304 162.710 164.507  0.00  0.00    +0.000 A 
ATOM     12  C2  UNL     1     152.349 161.375 164.940  0.00  0.00    +0.000 A 
ATOM     13  C3  UNL     1     152.820 161.311 166.220  0.00  0.00    +0.000 A 
ATOM     14  N1  UNL     1     153.051 162.626 166.541  0.00  0.00    +0.000 N 
ATOM     15  N2  UNL     1     152.747 163.417 165.539  0.00  0.00    +0.000 NA
ATOM     16  H3  UNL     1     153.428 162.898 167.485  0.00  0.00    +0.000 HD
BRANCH  11  17
ATOM     17  O1  UNL     1     151.876 163.135 163.254  0.00  0.00    +0.000 OA
ATOM     18  H1  UNL     1     151.394 163.996 163.155  0.00  0.00    +0.000 HD
ENDBRANCH  11  17
ENDBRANCH   1  13
TORSDOF 2
ENDMDL
