MODEL 1
REMARK VINA RESULT:      -6.4      0.000      0.000
REMARK  Name = ./3D_structures\o54_MMV1581548_3D.pdb
REMARK  7 active torsions:
REMARK  status: ('A' for Active; 'I' for Inactive)
REMARK    1  A    between atoms: C1_1  and  C2_2
REMARK    2  A    between atoms: C2_2  and  C3_3
REMARK    3  A    between atoms: C2_2  and  C4_4
REMARK    4  A    between atoms: C2_2  and  C5_5
REMARK    5  A    between atoms: C9_9  and  C11_12
REMARK    6  A    between atoms: C10_10  and  O1_11
REMARK    7  A    between atoms: C14_16  and  C18_21
REMARK                            x       y       z     vdW  Elec       q    Type
REMARK                         _______ _______ _______ _____ _____    ______ ____
ROOT
ATOM      1  C11 UNL     1     147.967 162.337 167.587  0.00  0.00    +0.000 A 
ATOM      2  N1  UNL     1     146.697 162.748 167.362  0.00  0.00    +0.000 NA
ATOM      3  C12 UNL     1     146.669 164.000 166.896  0.00  0.00    +0.000 A 
ATOM      4  C13 UNL     1     145.665 164.878 166.512  0.00  0.00    +0.000 A 
ATOM      5  C14 UNL     1     145.922 166.148 166.054  0.00  0.00    +0.000 A 
ATOM      6  C15 UNL     1     147.229 166.562 165.976  0.00  0.00    +0.000 A 
ATOM      7  C16 UNL     1     148.241 165.677 166.362  0.00  0.00    +0.000 A 
ATOM      8  C17 UNL     1     147.976 164.407 166.819  0.00  0.00    +0.000 A 
ATOM      9  N2  UNL     1     148.745 163.373 167.248  0.00  0.00    +0.000 N 
ATOM     10  H17 UNL     1     149.783 163.434 167.285  0.00  0.00    +0.000 HD
ENDROOT
BRANCH   1  15
ATOM     11  C5  UNL     1     149.893 159.491 169.169  0.00  0.00    +0.000 A 
ATOM     12  C6  UNL     1     148.977 158.467 169.041  0.00  0.00    +0.000 A 
ATOM     13  C7  UNL     1     147.745 158.692 168.448  0.00  0.00    +0.000 A 
ATOM     14  C8  UNL     1     147.463 159.957 167.993  0.00  0.00    +0.000 A 
ATOM     15  C9  UNL     1     148.354 161.009 168.103  0.00  0.00    +0.000 A 
ATOM     16  C10 UNL     1     149.563 160.749 168.696  0.00  0.00    +0.000 A 
BRANCH  11  18
ATOM     17  C1  UNL     1     152.368 159.518 168.982  0.00  0.00    +0.000 C 
ATOM     18  C2  UNL     1     151.185 159.187 169.813  0.00  0.00    +0.000 C 
ATOM     19  C3  UNL     1     151.237 159.929 171.135  0.00  0.00    +0.000 C 
ATOM     20  C4  UNL     1     151.257 157.703 170.186  0.00  0.00    +0.000 C 
ENDBRANCH  11  18
BRANCH  16  21
ATOM     21  O1  UNL     1     150.486 161.741 168.834  0.00  0.00    +0.000 OA
ATOM     22  H13 UNL     1     150.853 162.145 169.672  0.00  0.00    +0.000 HD
ENDBRANCH  16  21
ENDBRANCH   1  15
BRANCH   5  23
ATOM     23  C18 UNL     1     144.793 166.996 165.675  0.00  0.00    +0.000 C 
ATOM     24  N3  UNL     1     143.624 166.547 165.401  0.00  0.00    +0.000 NA
ATOM     25  N4  UNL     1     144.995 168.424 165.604  0.00  0.00    +0.000 N 
ATOM     26  H18 UNL     1     143.444 165.529 165.442  0.00  0.00    +0.000 HD
ATOM     27  H19 UNL     1     144.976 168.981 166.478  0.00  0.00    +0.000 HD
ATOM     28  H20 UNL     1     145.158 168.898 164.703  0.00  0.00    +0.000 HD
ENDBRANCH   5  23
TORSDOF 4
ENDMDL
MODEL 2
REMARK VINA RESULT:      -6.3      7.713     10.952
REMARK  Name = ./3D_structures\o54_MMV1581548_3D.pdb
REMARK  7 active torsions:
REMARK  status: ('A' for Active; 'I' for Inactive)
REMARK    1  A    between atoms: C1_1  and  C2_2
REMARK    2  A    between atoms: C2_2  and  C3_3
REMARK    3  A    between atoms: C2_2  and  C4_4
REMARK    4  A    between atoms: C2_2  and  C5_5
REMARK    5  A    between atoms: C9_9  and  C11_12
REMARK    6  A    between atoms: C10_10  and  O1_11
REMARK    7  A    between atoms: C14_16  and  C18_21
REMARK                            x       y       z     vdW  Elec       q    Type
REMARK                         _______ _______ _______ _____ _____    ______ ____
ROOT
ATOM      1  C11 UNL     1     156.288 158.926 170.266  0.00  0.00    +0.000 A 
ATOM      2  N1  UNL     1     155.803 158.005 169.400  0.00  0.00    +0.000 NA
ATOM      3  C12 UNL     1     156.693 157.720 168.446  0.00  0.00    +0.000 A 
ATOM      4  C13 UNL     1     156.710 156.874 167.346  0.00  0.00    +0.000 A 
ATOM      5  C14 UNL     1     157.792 156.772 166.503  0.00  0.00    +0.000 A 
ATOM      6  C15 UNL     1     158.898 157.541 166.763  0.00  0.00    +0.000 A 
ATOM      7  C16 UNL     1     158.881 158.394 167.873  0.00  0.00    +0.000 A 
ATOM      8  C17 UNL     1     157.796 158.491 168.712  0.00  0.00    +0.000 A 
ATOM      9  N2  UNL     1     157.520 159.216 169.826  0.00  0.00    +0.000 N 
ATOM     10  H17 UNL     1     158.205 159.883 170.236  0.00  0.00    +0.000 HD
ENDROOT
BRANCH   1  15
ATOM     11  C5  UNL     1     153.585 160.299 172.528  0.00  0.00    +0.000 A 
ATOM     12  C6  UNL     1     154.297 160.465 173.697  0.00  0.00    +0.000 A 
ATOM     13  C7  UNL     1     155.642 160.137 173.757  0.00  0.00    +0.000 A 
ATOM     14  C8  UNL     1     156.243 159.643 172.625  0.00  0.00    +0.000 A 
ATOM     15  C9  UNL     1     155.563 159.462 171.434  0.00  0.00    +0.000 A 
ATOM     16  C10 UNL     1     154.234 159.798 171.413  0.00  0.00    +0.000 A 
BRANCH  11  18
ATOM     17  C1  UNL     1     151.252 159.569 172.096  0.00  0.00    +0.000 C 
ATOM     18  C2  UNL     1     152.155 160.663 172.530  0.00  0.00    +0.000 C 
ATOM     19  C3  UNL     1     151.791 161.134 173.924  0.00  0.00    +0.000 C 
ATOM     20  C4  UNL     1     151.914 161.875 171.624  0.00  0.00    +0.000 C 
ENDBRANCH  11  18
BRANCH  16  21
ATOM     21  O1  UNL     1     153.507 159.645 170.271  0.00  0.00    +0.000 OA
ATOM     22  H13 UNL     1     153.478 160.230 169.461  0.00  0.00    +0.000 HD
ENDBRANCH  16  21
ENDBRANCH   1  15
BRANCH   5  23
ATOM     23  C18 UNL     1     157.709 155.851 165.371  0.00  0.00    +0.000 C 
ATOM     24  N3  UNL     1     156.616 155.326 164.954  0.00  0.00    +0.000 NA
ATOM     25  N4  UNL     1     158.925 155.506 164.671  0.00  0.00    +0.000 N 
ATOM     26  H18 UNL     1     155.726 155.552 165.433  0.00  0.00    +0.000 HD
ATOM     27  H19 UNL     1     159.305 156.164 163.965  0.00  0.00    +0.000 HD
ATOM     28  H20 UNL     1     159.419 154.622 164.861  0.00  0.00    +0.000 HD
ENDBRANCH   5  23
TORSDOF 4
ENDMDL
MODEL 3
REMARK VINA RESULT:      -6.2      1.398      2.591
REMARK  Name = ./3D_structures\o54_MMV1581548_3D.pdb
REMARK  7 active torsions:
REMARK  status: ('A' for Active; 'I' for Inactive)
REMARK    1  A    between atoms: C1_1  and  C2_2
REMARK    2  A    between atoms: C2_2  and  C3_3
REMARK    3  A    between atoms: C2_2  and  C4_4
REMARK    4  A    between atoms: C2_2  and  C5_5
REMARK    5  A    between atoms: C9_9  and  C11_12
REMARK    6  A    between atoms: C10_10  and  O1_11
REMARK    7  A    between atoms: C14_16  and  C18_21
REMARK                            x       y       z     vdW  Elec       q    Type
REMARK                         _______ _______ _______ _____ _____    ______ ____
ROOT
ATOM      1  C11 UNL     1     149.046 162.650 167.389  0.00  0.00    +0.000 A 
ATOM      2  N1  UNL     1     148.993 163.871 166.808  0.00  0.00    +0.000 NA
ATOM      3  C12 UNL     1     147.738 164.323 166.746  0.00  0.00    +0.000 A 
ATOM      4  C13 UNL     1     147.137 165.479 166.265  0.00  0.00    +0.000 A 
ATOM      5  C14 UNL     1     145.781 165.694 166.331  0.00  0.00    +0.000 A 
ATOM      6  C15 UNL     1     144.991 164.724 166.895  0.00  0.00    +0.000 A 
ATOM      7  C16 UNL     1     145.597 163.559 167.380  0.00  0.00    +0.000 A 
ATOM      8  C17 UNL     1     146.954 163.350 167.312  0.00  0.00    +0.000 A 
ATOM      9  N2  UNL     1     147.779 162.342 167.694  0.00  0.00    +0.000 N 
ATOM     10  H17 UNL     1     147.423 161.479 168.153  0.00  0.00    +0.000 HD
ENDROOT
BRANCH   1  15
ATOM     11  C5  UNL     1     151.565 160.181 168.759  0.00  0.00    +0.000 A 
ATOM     12  C6  UNL     1     152.646 160.449 167.945  0.00  0.00    +0.000 A 
ATOM     13  C7  UNL     1     152.565 161.420 166.960  0.00  0.00    +0.000 A 
ATOM     14  C8  UNL     1     151.383 162.105 166.817  0.00  0.00    +0.000 A 
ATOM     15  C9  UNL     1     150.277 161.866 167.612  0.00  0.00    +0.000 A 
ATOM     16  C10 UNL     1     150.395 160.898 168.576  0.00  0.00    +0.000 A 
BRANCH  11  18
ATOM     17  C1  UNL     1     150.551 158.218 169.889  0.00  0.00    +0.000 C 
ATOM     18  C2  UNL     1     151.713 159.133 169.786  0.00  0.00    +0.000 C 
ATOM     19  C3  UNL     1     152.980 158.355 169.485  0.00  0.00    +0.000 C 
ATOM     20  C4  UNL     1     151.952 159.765 171.161  0.00  0.00    +0.000 C 
ENDBRANCH  11  18
BRANCH  16  21
ATOM     21  O1  UNL     1     149.343 160.614 169.394  0.00  0.00    +0.000 OA
ATOM     22  H13 UNL     1     149.124 160.996 170.293  0.00  0.00    +0.000 HD
ENDBRANCH  16  21
ENDBRANCH   1  15
BRANCH   5  23
ATOM     23  C18 UNL     1     145.247 166.945 165.795  0.00  0.00    +0.000 C 
ATOM     24  N3  UNL     1     145.949 168.003 165.615  0.00  0.00    +0.000 NA
ATOM     25  N4  UNL     1     143.847 167.004 165.443  0.00  0.00    +0.000 N 
ATOM     26  H18 UNL     1     146.954 167.996 165.856  0.00  0.00    +0.000 HD
ATOM     27  H19 UNL     1     143.538 166.612 164.534  0.00  0.00    +0.000 HD
ATOM     28  H20 UNL     1     143.153 167.426 166.077  0.00  0.00    +0.000 HD
ENDBRANCH   5  23
TORSDOF 4
ENDMDL
MODEL 4
REMARK VINA RESULT:      -6.1      2.593      3.724
REMARK  Name = ./3D_structures\o54_MMV1581548_3D.pdb
REMARK  7 active torsions:
REMARK  status: ('A' for Active; 'I' for Inactive)
REMARK    1  A    between atoms: C1_1  and  C2_2
REMARK    2  A    between atoms: C2_2  and  C3_3
REMARK    3  A    between atoms: C2_2  and  C4_4
REMARK    4  A    between atoms: C2_2  and  C5_5
REMARK    5  A    between atoms: C9_9  and  C11_12
REMARK    6  A    between atoms: C10_10  and  O1_11
REMARK    7  A    between atoms: C14_16  and  C18_21
REMARK                            x       y       z     vdW  Elec       q    Type
REMARK                         _______ _______ _______ _____ _____    ______ ____
ROOT
ATOM      1  C11 UNL     1     151.129 162.061 167.071  0.00  0.00    +0.000 A 
ATOM      2  N1  UNL     1     149.920 161.929 167.664  0.00  0.00    +0.000 NA
ATOM      3  C12 UNL     1     149.207 163.055 167.567  0.00  0.00    +0.000 A 
ATOM      4  C13 UNL     1     147.945 163.453 167.987  0.00  0.00    +0.000 A 
ATOM      5  C14 UNL     1     147.443 164.710 167.745  0.00  0.00    +0.000 A 
ATOM      6  C15 UNL     1     148.225 165.606 167.060  0.00  0.00    +0.000 A 
ATOM      7  C16 UNL     1     149.497 165.204 166.637  0.00  0.00    +0.000 A 
ATOM      8  C17 UNL     1     149.993 163.945 166.881  0.00  0.00    +0.000 A 
ATOM      9  N2  UNL     1     151.159 163.312 166.593  0.00  0.00    +0.000 N 
ATOM     10  H17 UNL     1     151.929 163.780 166.072  0.00  0.00    +0.000 HD
ENDROOT
BRANCH   1  15
ATOM     11  C5  UNL     1     153.464 159.217 167.948  0.00  0.00    +0.000 A 
ATOM     12  C6  UNL     1     154.123 159.055 166.747  0.00  0.00    +0.000 A 
ATOM     13  C7  UNL     1     153.818 159.858 165.660  0.00  0.00    +0.000 A 
ATOM     14  C8  UNL     1     152.844 160.815 165.811  0.00  0.00    +0.000 A 
ATOM     15  C9  UNL     1     152.161 161.009 166.997  0.00  0.00    +0.000 A 
ATOM     16  C10 UNL     1     152.490 160.195 168.051  0.00  0.00    +0.000 A 
BRANCH  11  18
ATOM     17  C1  UNL     1     152.677 157.657 169.711  0.00  0.00    +0.000 C 
ATOM     18  C2  UNL     1     153.832 158.327 169.066  0.00  0.00    +0.000 C 
ATOM     19  C3  UNL     1     154.821 157.302 168.546  0.00  0.00    +0.000 C 
ATOM     20  C4  UNL     1     154.597 159.110 170.139  0.00  0.00    +0.000 C 
ENDBRANCH  11  18
BRANCH  16  21
ATOM     21  O1  UNL     1     151.855 160.334 169.248  0.00  0.00    +0.000 OA
ATOM     22  H13 UNL     1     152.242 160.321 170.171  0.00  0.00    +0.000 HD
ENDBRANCH  16  21
ENDBRANCH   1  15
BRANCH   5  23
ATOM     23  C18 UNL     1     146.102 165.030 168.230  0.00  0.00    +0.000 C 
ATOM     24  N3  UNL     1     145.841 165.369 169.440  0.00  0.00    +0.000 NA
ATOM     25  N4  UNL     1     144.998 164.966 167.302  0.00  0.00    +0.000 N 
ATOM     26  H18 UNL     1     146.609 165.425 170.131  0.00  0.00    +0.000 HD
ATOM     27  H19 UNL     1     144.833 165.761 166.656  0.00  0.00    +0.000 HD
ATOM     28  H20 UNL     1     144.373 164.146 167.268  0.00  0.00    +0.000 HD
ENDBRANCH   5  23
TORSDOF 4
ENDMDL
MODEL 5
REMARK VINA RESULT:      -6.0      2.205      3.323
REMARK  Name = ./3D_structures\o54_MMV1581548_3D.pdb
REMARK  7 active torsions:
REMARK  status: ('A' for Active; 'I' for Inactive)
REMARK    1  A    between atoms: C1_1  and  C2_2
REMARK    2  A    between atoms: C2_2  and  C3_3
REMARK    3  A    between atoms: C2_2  and  C4_4
REMARK    4  A    between atoms: C2_2  and  C5_5
REMARK    5  A    between atoms: C9_9  and  C11_12
REMARK    6  A    between atoms: C10_10  and  O1_11
REMARK    7  A    between atoms: C14_16  and  C18_21
REMARK                            x       y       z     vdW  Elec       q    Type
REMARK                         _______ _______ _______ _____ _____    ______ ____
ROOT
ATOM      1  C11 UNL     1     150.906 161.857 167.825  0.00  0.00    +0.000 A 
ATOM      2  N1  UNL     1     149.578 162.116 167.866  0.00  0.00    +0.000 NA
ATOM      3  C12 UNL     1     149.298 163.298 167.311  0.00  0.00    +0.000 A 
ATOM      4  C13 UNL     1     148.136 164.027 167.095  0.00  0.00    +0.000 A 
ATOM      5  C14 UNL     1     148.133 165.257 166.480  0.00  0.00    +0.000 A 
ATOM      6  C15 UNL     1     149.331 165.783 166.064  0.00  0.00    +0.000 A 
ATOM      7  C16 UNL     1     150.501 165.048 166.281  0.00  0.00    +0.000 A 
ATOM      8  C17 UNL     1     150.498 163.818 166.897  0.00  0.00    +0.000 A 
ATOM      9  N2  UNL     1     151.460 162.918 167.224  0.00  0.00    +0.000 N 
ATOM     10  H17 UNL     1     152.465 163.082 167.013  0.00  0.00    +0.000 HD
ENDROOT
BRANCH   1  15
ATOM     11  C5  UNL     1     153.325 159.006 168.400  0.00  0.00    +0.000 A 
ATOM     12  C6  UNL     1     152.682 158.333 169.418  0.00  0.00    +0.000 A 
ATOM     13  C7  UNL     1     151.474 158.795 169.917  0.00  0.00    +0.000 A 
ATOM     14  C8  UNL     1     150.939 159.937 169.372  0.00  0.00    +0.000 A 
ATOM     15  C9  UNL     1     151.553 160.639 168.351  0.00  0.00    +0.000 A 
ATOM     16  C10 UNL     1     152.746 160.152 167.883  0.00  0.00    +0.000 A 
BRANCH  11  18
ATOM     17  C1  UNL     1     154.631 158.166 166.463  0.00  0.00    +0.000 C 
ATOM     18  C2  UNL     1     154.610 158.465 167.916  0.00  0.00    +0.000 C 
ATOM     19  C3  UNL     1     155.701 159.455 168.273  0.00  0.00    +0.000 C 
ATOM     20  C4  UNL     1     154.968 157.185 168.678  0.00  0.00    +0.000 C 
ENDBRANCH  11  18
BRANCH  16  21
ATOM     21  O1  UNL     1     153.402 160.796 166.878  0.00  0.00    +0.000 OA
ATOM     22  H13 UNL     1     154.174 160.479 166.326  0.00  0.00    +0.000 HD
ENDBRANCH  16  21
ENDBRANCH   1  15
BRANCH   5  23
ATOM     23  C18 UNL     1     146.855 165.944 166.301  0.00  0.00    +0.000 C 
ATOM     24  N3  UNL     1     146.608 166.755 165.339  0.00  0.00    +0.000 NA
ATOM     25  N4  UNL     1     145.800 165.701 167.258  0.00  0.00    +0.000 N 
ATOM     26  H18 UNL     1     147.341 166.952 164.636  0.00  0.00    +0.000 HD
ATOM     27  H19 UNL     1     145.225 164.843 167.169  0.00  0.00    +0.000 HD
ATOM     28  H20 UNL     1     145.611 166.362 168.026  0.00  0.00    +0.000 HD
ENDBRANCH   5  23
TORSDOF 4
ENDMDL
MODEL 6
REMARK VINA RESULT:      -6.0      3.327      8.510
REMARK  Name = ./3D_structures\o54_MMV1581548_3D.pdb
REMARK  7 active torsions:
REMARK  status: ('A' for Active; 'I' for Inactive)
REMARK    1  A    between atoms: C1_1  and  C2_2
REMARK    2  A    between atoms: C2_2  and  C3_3
REMARK    3  A    between atoms: C2_2  and  C4_4
REMARK    4  A    between atoms: C2_2  and  C5_5
REMARK    5  A    between atoms: C9_9  and  C11_12
REMARK    6  A    between atoms: C10_10  and  O1_11
REMARK    7  A    between atoms: C14_16  and  C18_21
REMARK                            x       y       z     vdW  Elec       q    Type
REMARK                         _______ _______ _______ _____ _____    ______ ____
ROOT
ATOM      1  C11 UNL     1     150.563 162.251 167.751  0.00  0.00    +0.000 A 
ATOM      2  N1  UNL     1     151.717 161.687 167.322  0.00  0.00    +0.000 NA
ATOM      3  C12 UNL     1     152.006 160.585 168.019  0.00  0.00    +0.000 A 
ATOM      4  C13 UNL     1     153.034 159.654 167.995  0.00  0.00    +0.000 A 
ATOM      5  C14 UNL     1     153.087 158.581 168.852  0.00  0.00    +0.000 A 
ATOM      6  C15 UNL     1     152.078 158.427 169.770  0.00  0.00    +0.000 A 
ATOM      7  C16 UNL     1     151.040 159.366 169.794  0.00  0.00    +0.000 A 
ATOM      8  C17 UNL     1     150.994 160.437 168.934  0.00  0.00    +0.000 A 
ATOM      9  N2  UNL     1     150.130 161.468 168.747  0.00  0.00    +0.000 N 
ATOM     10  H17 UNL     1     149.271 161.581 169.323  0.00  0.00    +0.000 HD
ENDROOT
BRANCH   1  15
ATOM     11  C5  UNL     1     148.073 164.885 166.666  0.00  0.00    +0.000 A 
ATOM     12  C6  UNL     1     148.924 165.827 166.127  0.00  0.00    +0.000 A 
ATOM     13  C7  UNL     1     150.294 165.615 166.112  0.00  0.00    +0.000 A 
ATOM     14  C8  UNL     1     150.778 164.446 166.648  0.00  0.00    +0.000 A 
ATOM     15  C9  UNL     1     149.957 163.478 167.197  0.00  0.00    +0.000 A 
ATOM     16  C10 UNL     1     148.608 163.723 167.194  0.00  0.00    +0.000 A 
BRANCH  11  18
ATOM     17  C1  UNL     1     146.003 165.183 168.002  0.00  0.00    +0.000 C 
ATOM     18  C2  UNL     1     146.626 165.172 166.656  0.00  0.00    +0.000 C 
ATOM     19  C3  UNL     1     146.415 166.502 165.959  0.00  0.00    +0.000 C 
ATOM     20  C4  UNL     1     145.887 164.146 165.791  0.00  0.00    +0.000 C 
ENDBRANCH  11  18
BRANCH  16  21
ATOM     21  O1  UNL     1     147.745 162.809 167.720  0.00  0.00    +0.000 OA
ATOM     22  H13 UNL     1     147.570 161.868 167.428  0.00  0.00    +0.000 HD
ENDBRANCH  16  21
ENDBRANCH   1  15
BRANCH   5  23
ATOM     23  C18 UNL     1     154.215 157.657 168.745  0.00  0.00    +0.000 C 
ATOM     24  N3  UNL     1     154.660 157.197 167.634  0.00  0.00    +0.000 NA
ATOM     25  N4  UNL     1     154.876 157.230 169.957  0.00  0.00    +0.000 N 
ATOM     26  H18 UNL     1     154.210 157.482 166.747  0.00  0.00    +0.000 HD
ATOM     27  H19 UNL     1     155.574 157.857 170.399  0.00  0.00    +0.000 HD
ATOM     28  H20 UNL     1     154.665 156.319 170.389  0.00  0.00    +0.000 HD
ENDBRANCH   5  23
TORSDOF 4
ENDMDL
MODEL 7
REMARK VINA RESULT:      -6.0      2.606      3.911
REMARK  Name = ./3D_structures\o54_MMV1581548_3D.pdb
REMARK  7 active torsions:
REMARK  status: ('A' for Active; 'I' for Inactive)
REMARK    1  A    between atoms: C1_1  and  C2_2
REMARK    2  A    between atoms: C2_2  and  C3_3
REMARK    3  A    between atoms: C2_2  and  C4_4
REMARK    4  A    between atoms: C2_2  and  C5_5
REMARK    5  A    between atoms: C9_9  and  C11_12
REMARK    6  A    between atoms: C10_10  and  O1_11
REMARK    7  A    between atoms: C14_16  and  C18_21
REMARK                            x       y       z     vdW  Elec       q    Type
REMARK                         _______ _______ _______ _____ _____    ______ ____
ROOT
ATOM      1  C11 UNL     1     145.115 160.983 166.369  0.00  0.00    +0.000 A 
ATOM      2  N1  UNL     1     146.037 161.973 166.319  0.00  0.00    +0.000 NA
ATOM      3  C12 UNL     1     145.461 163.160 166.108  0.00  0.00    +0.000 A 
ATOM      4  C13 UNL     1     145.923 164.462 165.975  0.00  0.00    +0.000 A 
ATOM      5  C14 UNL     1     145.086 165.531 165.757  0.00  0.00    +0.000 A 
ATOM      6  C15 UNL     1     143.737 165.296 165.668  0.00  0.00    +0.000 A 
ATOM      7  C16 UNL     1     143.270 163.984 165.802  0.00  0.00    +0.000 A 
ATOM      8  C17 UNL     1     144.113 162.919 166.020  0.00  0.00    +0.000 A 
ATOM      9  N2  UNL     1     143.932 161.583 166.182  0.00  0.00    +0.000 N 
ATOM     10  H17 UNL     1     142.989 161.146 166.157  0.00  0.00    +0.000 HD
ENDROOT
BRANCH   1  15
ATOM     11  C5  UNL     1     146.232 157.715 167.914  0.00  0.00    +0.000 A 
ATOM     12  C6  UNL     1     145.929 156.839 166.891  0.00  0.00    +0.000 A 
ATOM     13  C7  UNL     1     145.369 157.298 165.710  0.00  0.00    +0.000 A 
ATOM     14  C8  UNL     1     145.124 158.644 165.586  0.00  0.00    +0.000 A 
ATOM     15  C9  UNL     1     145.412 159.554 166.587  0.00  0.00    +0.000 A 
ATOM     16  C10 UNL     1     145.966 159.062 167.742  0.00  0.00    +0.000 A 
BRANCH  11  18
ATOM     17  C1  UNL     1     146.023 157.424 170.369  0.00  0.00    +0.000 C 
ATOM     18  C2  UNL     1     146.822 157.162 169.147  0.00  0.00    +0.000 C 
ATOM     19  C3  UNL     1     147.020 155.672 168.948  0.00  0.00    +0.000 C 
ATOM     20  C4  UNL     1     148.230 157.726 169.362  0.00  0.00    +0.000 C 
ENDBRANCH  11  18
BRANCH  16  21
ATOM     21  O1  UNL     1     146.274 159.905 168.767  0.00  0.00    +0.000 OA
ATOM     22  H13 UNL     1     146.560 160.863 168.729  0.00  0.00    +0.000 HD
ENDBRANCH  16  21
ENDBRANCH   1  15
BRANCH   5  23
ATOM     23  C18 UNL     1     145.674 166.863 165.630  0.00  0.00    +0.000 C 
ATOM     24  N3  UNL     1     146.936 167.087 165.590  0.00  0.00    +0.000 NA
ATOM     25  N4  UNL     1     144.790 168.002 165.544  0.00  0.00    +0.000 N 
ATOM     26  H18 UNL     1     147.597 166.293 165.649  0.00  0.00    +0.000 HD
ATOM     27  H19 UNL     1     144.350 168.232 164.633  0.00  0.00    +0.000 HD
ATOM     28  H20 UNL     1     144.590 168.588 166.367  0.00  0.00    +0.000 HD
ENDBRANCH   5  23
TORSDOF 4
ENDMDL
MODEL 8
REMARK VINA RESULT:      -6.0      6.886     10.369
REMARK  Name = ./3D_structures\o54_MMV1581548_3D.pdb
REMARK  7 active torsions:
REMARK  status: ('A' for Active; 'I' for Inactive)
REMARK    1  A    between atoms: C1_1  and  C2_2
REMARK    2  A    between atoms: C2_2  and  C3_3
REMARK    3  A    between atoms: C2_2  and  C4_4
REMARK    4  A    between atoms: C2_2  and  C5_5
REMARK    5  A    between atoms: C9_9  and  C11_12
REMARK    6  A    between atoms: C10_10  and  O1_11
REMARK    7  A    between atoms: C14_16  and  C18_21
REMARK                            x       y       z     vdW  Elec       q    Type
REMARK                         _______ _______ _______ _____ _____    ______ ____
ROOT
ATOM      1  C11 UNL     1     155.867 157.826 167.294  0.00  0.00    +0.000 A 
ATOM      2  N1  UNL     1     155.142 157.062 168.144  0.00  0.00    +0.000 NA
ATOM      3  C12 UNL     1     154.057 157.713 168.574  0.00  0.00    +0.000 A 
ATOM      4  C13 UNL     1     153.008 157.407 169.429  0.00  0.00    +0.000 A 
ATOM      5  C14 UNL     1     151.990 158.290 169.704  0.00  0.00    +0.000 A 
ATOM      6  C15 UNL     1     152.017 159.525 169.105  0.00  0.00    +0.000 A 
ATOM      7  C16 UNL     1     153.075 159.833 168.243  0.00  0.00    +0.000 A 
ATOM      8  C17 UNL     1     154.090 158.946 167.972  0.00  0.00    +0.000 A 
ATOM      9  N2  UNL     1     155.205 158.986 167.199  0.00  0.00    +0.000 N 
ATOM     10  H17 UNL     1     155.457 159.822 166.635  0.00  0.00    +0.000 HD
ENDROOT
BRANCH   1  15
ATOM     11  C5  UNL     1     158.382 156.088 165.064  0.00  0.00    +0.000 A 
ATOM     12  C6  UNL     1     159.545 156.709 165.468  0.00  0.00    +0.000 A 
ATOM     13  C7  UNL     1     159.521 157.683 166.453  0.00  0.00    +0.000 A 
ATOM     14  C8  UNL     1     158.311 158.011 167.014  0.00  0.00    +0.000 A 
ATOM     15  C9  UNL     1     157.123 157.411 166.638  0.00  0.00    +0.000 A 
ATOM     16  C10 UNL     1     157.186 156.453 165.659  0.00  0.00    +0.000 A 
BRANCH  11  18
ATOM     17  C1  UNL     1     157.940 153.737 164.402  0.00  0.00    +0.000 C 
ATOM     18  C2  UNL     1     158.474 155.063 164.007  0.00  0.00    +0.000 C 
ATOM     19  C3  UNL     1     157.752 155.585 162.780  0.00  0.00    +0.000 C 
ATOM     20  C4  UNL     1     159.931 154.884 163.566  0.00  0.00    +0.000 C 
ENDBRANCH  11  18
BRANCH  16  21
ATOM     21  O1  UNL     1     156.053 155.823 165.242  0.00  0.00    +0.000 OA
ATOM     22  H13 UNL     1     155.887 154.845 165.115  0.00  0.00    +0.000 HD
ENDBRANCH  16  21
ENDBRANCH   1  15
BRANCH   5  23
ATOM     23  C18 UNL     1     150.931 157.870 170.619  0.00  0.00    +0.000 C 
ATOM     24  N3  UNL     1     150.203 158.684 171.292  0.00  0.00    +0.000 NA
ATOM     25  N4  UNL     1     150.679 156.457 170.783  0.00  0.00    +0.000 N 
ATOM     26  H18 UNL     1     150.357 159.703 171.199  0.00  0.00    +0.000 HD
ATOM     27  H19 UNL     1     150.109 155.960 170.073  0.00  0.00    +0.000 HD
ATOM     28  H20 UNL     1     151.054 155.936 171.589  0.00  0.00    +0.000 HD
ENDBRANCH   5  23
TORSDOF 4
ENDMDL
MODEL 9
REMARK VINA RESULT:      -5.9      3.856      5.248
REMARK  Name = ./3D_structures\o54_MMV1581548_3D.pdb
REMARK  7 active torsions:
REMARK  status: ('A' for Active; 'I' for Inactive)
REMARK    1  A    between atoms: C1_1  and  C2_2
REMARK    2  A    between atoms: C2_2  and  C3_3
REMARK    3  A    between atoms: C2_2  and  C4_4
REMARK    4  A    between atoms: C2_2  and  C5_5
REMARK    5  A    between atoms: C9_9  and  C11_12
REMARK    6  A    between atoms: C10_10  and  O1_11
REMARK    7  A    between atoms: C14_16  and  C18_21
REMARK                            x       y       z     vdW  Elec       q    Type
REMARK                         _______ _______ _______ _____ _____    ______ ____
ROOT
ATOM      1  C11 UNL     1     148.998 165.270 166.347  0.00  0.00    +0.000 A 
ATOM      2  N1  UNL     1     147.924 164.446 166.379  0.00  0.00    +0.000 NA
ATOM      3  C12 UNL     1     146.795 165.112 166.125  0.00  0.00    +0.000 A 
ATOM      4  C13 UNL     1     145.454 164.765 166.036  0.00  0.00    +0.000 A 
ATOM      5  C14 UNL     1     144.466 165.679 165.751  0.00  0.00    +0.000 A 
ATOM      6  C15 UNL     1     144.826 166.987 165.545  0.00  0.00    +0.000 A 
ATOM      7  C16 UNL     1     146.178 167.337 165.634  0.00  0.00    +0.000 A 
ATOM      8  C17 UNL     1     147.161 166.418 165.920  0.00  0.00    +0.000 A 
ATOM      9  N2  UNL     1     148.509 166.485 166.063  0.00  0.00    +0.000 N 
ATOM     10  H17 UNL     1     149.034 167.376 165.955  0.00  0.00    +0.000 HD
ENDROOT
BRANCH   1  15
ATOM     11  C5  UNL     1     152.731 164.767 165.995  0.00  0.00    +0.000 A 
ATOM     12  C6  UNL     1     152.992 164.031 167.132  0.00  0.00    +0.000 A 
ATOM     13  C7  UNL     1     151.971 163.697 168.007  0.00  0.00    +0.000 A 
ATOM     14  C8  UNL     1     150.698 164.119 167.713  0.00  0.00    +0.000 A 
ATOM     15  C9  UNL     1     150.395 164.858 166.585  0.00  0.00    +0.000 A 
ATOM     16  C10 UNL     1     151.431 165.170 165.742  0.00  0.00    +0.000 A 
BRANCH  11  18
ATOM     17  C1  UNL     1     154.022 166.544 164.839  0.00  0.00    +0.000 C 
ATOM     18  C2  UNL     1     153.862 165.094 165.106  0.00  0.00    +0.000 C 
ATOM     19  C3  UNL     1     155.124 164.522 165.720  0.00  0.00    +0.000 C 
ATOM     20  C4  UNL     1     153.709 164.370 163.764  0.00  0.00    +0.000 C 
ENDBRANCH  11  18
BRANCH  16  21
ATOM     21  O1  UNL     1     151.201 165.896 164.612  0.00  0.00    +0.000 OA
ATOM     22  H13 UNL     1     151.725 166.661 164.238  0.00  0.00    +0.000 HD
ENDBRANCH  16  21
ENDBRANCH   1  15
BRANCH   5  23
ATOM     23  C18 UNL     1     143.083 165.211 165.681  0.00  0.00    +0.000 C 
ATOM     24  N3  UNL     1     142.086 165.968 165.399  0.00  0.00    +0.000 NA
ATOM     25  N4  UNL     1     142.811 163.817 165.941  0.00  0.00    +0.000 N 
ATOM     26  H18 UNL     1     142.246 166.972 165.208  0.00  0.00    +0.000 HD
ATOM     27  H19 UNL     1     142.967 163.123 165.186  0.00  0.00    +0.000 HD
ATOM     28  H20 UNL     1     142.467 163.501 166.860  0.00  0.00    +0.000 HD
ENDBRANCH   5  23
TORSDOF 4
ENDMDL
