MODEL 1
REMARK VINA RESULT:      -7.2      0.000      0.000
REMARK  Name = ./3D_structures\o55_MMV1580850_3D.pdb
REMARK  4 active torsions:
REMARK  status: ('A' for Active; 'I' for Inactive)
REMARK    1  A    between atoms: C4_5  and  N1_8
REMARK    2  A    between atoms: C8_10  and  C9_11
REMARK    3  A    between atoms: C9_11  and  N2_12
REMARK    4  A    between atoms: C10_13  and  C17_21
REMARK                            x       y       z     vdW  Elec       q    Type
REMARK                         _______ _______ _______ _____ _____    ______ ____
ROOT
ATOM      1  N2  UNL     1     159.649 158.675 167.172  0.00  0.00    +0.000 N 
ATOM      2  C10 UNL     1     158.681 158.146 166.422  0.00  0.00    +0.000 A 
ATOM      3  N3  UNL     1     159.323 157.198 165.644  0.00  0.00    +0.000 NA
ATOM      4  C11 UNL     1     160.620 157.170 165.923  0.00  0.00    +0.000 A 
ATOM      5  C12 UNL     1     161.704 156.432 165.455  0.00  0.00    +0.000 A 
ATOM      6  C13 UNL     1     162.977 156.624 165.945  0.00  0.00    +0.000 A 
ATOM      7  C14 UNL     1     163.227 157.561 166.924  0.00  0.00    +0.000 A 
ATOM      8  C15 UNL     1     162.149 158.285 167.380  0.00  0.00    +0.000 A 
ATOM      9  C16 UNL     1     160.869 158.101 166.898  0.00  0.00    +0.000 A 
ENDROOT
BRANCH   2  10
ATOM     10  C17 UNL     1     157.251 158.394 166.333  0.00  0.00    +0.000 A 
ATOM     11  C18 UNL     1     156.427 157.559 167.111  0.00  0.00    +0.000 A 
ATOM     12  C19 UNL     1     155.057 157.703 167.105  0.00  0.00    +0.000 A 
ATOM     13  C20 UNL     1     154.467 158.676 166.329  0.00  0.00    +0.000 A 
ATOM     14  C21 UNL     1     155.247 159.510 165.556  0.00  0.00    +0.000 A 
ATOM     15  F2  UNL     1     154.747 160.480 164.776  0.00  0.00    +0.000 F 
ATOM     16  C22 UNL     1     156.628 159.335 165.588  0.00  0.00    +0.000 A 
ENDBRANCH   2  10
BRANCH   1  17
ATOM     17  C9  UNL     1     159.561 159.716 168.149  0.00  0.00    +0.000 C 
BRANCH  17  20
ATOM     18  N1  UNL     1     157.131 159.265 170.901  0.00  0.00    +0.000 N 
ATOM     19  C7  UNL     1     157.611 159.969 169.827  0.00  0.00    +0.000 A 
ATOM     20  C8  UNL     1     158.708 159.340 169.301  0.00  0.00    +0.000 A 
ATOM     21  N4  UNL     1     158.863 158.237 170.097  0.00  0.00    +0.000 NA
ATOM     22  N5  UNL     1     157.923 158.231 171.020  0.00  0.00    +0.000 NA
BRANCH  18  27
ATOM     23  F1  UNL     1     152.598 160.593 173.893  0.00  0.00    +0.000 F 
ATOM     24  C1  UNL     1     153.705 160.269 173.166  0.00  0.00    +0.000 A 
ATOM     25  C2  UNL     1     153.643 160.104 171.801  0.00  0.00    +0.000 A 
ATOM     26  C3  UNL     1     154.775 159.777 171.086  0.00  0.00    +0.000 A 
ATOM     27  C4  UNL     1     156.010 159.602 171.703  0.00  0.00    +0.000 A 
ATOM     28  C5  UNL     1     156.079 159.767 173.069  0.00  0.00    +0.000 A 
ATOM     29  C6  UNL     1     154.940 160.095 173.780  0.00  0.00    +0.000 A 
ENDBRANCH  18  27
ENDBRANCH  17  20
ENDBRANCH   1  17
TORSDOF 4
ENDMDL
MODEL 2
REMARK VINA RESULT:      -7.1      3.925      5.360
REMARK  Name = ./3D_structures\o55_MMV1580850_3D.pdb
REMARK  4 active torsions:
REMARK  status: ('A' for Active; 'I' for Inactive)
REMARK    1  A    between atoms: C4_5  and  N1_8
REMARK    2  A    between atoms: C8_10  and  C9_11
REMARK    3  A    between atoms: C9_11  and  N2_12
REMARK    4  A    between atoms: C10_13  and  C17_21
REMARK                            x       y       z     vdW  Elec       q    Type
REMARK                         _______ _______ _______ _____ _____    ______ ____
ROOT
ATOM      1  N2  UNL     1     160.034 155.427 164.067  0.00  0.00    +0.000 N 
ATOM      2  C10 UNL     1     159.941 154.112 163.865  0.00  0.00    +0.000 A 
ATOM      3  N3  UNL     1     161.191 153.620 164.198  0.00  0.00    +0.000 NA
ATOM      4  C11 UNL     1     161.991 154.607 164.583  0.00  0.00    +0.000 A 
ATOM      5  C12 UNL     1     163.313 154.681 165.013  0.00  0.00    +0.000 A 
ATOM      6  C13 UNL     1     163.897 155.881 165.356  0.00  0.00    +0.000 A 
ATOM      7  C14 UNL     1     163.188 157.061 165.285  0.00  0.00    +0.000 A 
ATOM      8  C15 UNL     1     161.883 156.976 164.858  0.00  0.00    +0.000 A 
ATOM      9  C16 UNL     1     161.287 155.781 164.513  0.00  0.00    +0.000 A 
ENDROOT
BRANCH   2  10
ATOM     10  C17 UNL     1     158.857 153.255 163.412  0.00  0.00    +0.000 A 
ATOM     11  C18 UNL     1     158.881 152.891 162.052  0.00  0.00    +0.000 A 
ATOM     12  C19 UNL     1     157.904 152.084 161.512  0.00  0.00    +0.000 A 
ATOM     13  C20 UNL     1     156.878 151.616 162.304  0.00  0.00    +0.000 A 
ATOM     14  C21 UNL     1     156.826 151.956 163.638  0.00  0.00    +0.000 A 
ATOM     15  F2  UNL     1     155.861 151.540 164.472  0.00  0.00    +0.000 F 
ATOM     16  C22 UNL     1     157.832 152.773 164.149  0.00  0.00    +0.000 A 
ENDBRANCH   2  10
BRANCH   1  17
ATOM     17  C9  UNL     1     159.043 156.439 163.866  0.00  0.00    +0.000 C 
BRANCH  17  20
ATOM     18  N1  UNL     1     157.187 156.935 167.027  0.00  0.00    +0.000 N 
ATOM     19  C7  UNL     1     158.342 157.000 166.290  0.00  0.00    +0.000 A 
ATOM     20  C8  UNL     1     158.114 156.557 165.014  0.00  0.00    +0.000 A 
ATOM     21  N4  UNL     1     156.786 156.226 165.017  0.00  0.00    +0.000 NA
ATOM     22  N5  UNL     1     156.281 156.461 166.211  0.00  0.00    +0.000 NA
BRANCH  18  27
ATOM     23  F1  UNL     1     156.737 158.500 172.376  0.00  0.00    +0.000 F 
ATOM     24  C1  UNL     1     156.844 158.117 171.072  0.00  0.00    +0.000 A 
ATOM     25  C2  UNL     1     157.925 158.485 170.303  0.00  0.00    +0.000 A 
ATOM     26  C3  UNL     1     158.013 158.086 168.987  0.00  0.00    +0.000 A 
ATOM     27  C4  UNL     1     157.028 157.306 168.387  0.00  0.00    +0.000 A 
ATOM     28  C5  UNL     1     155.944 156.934 169.152  0.00  0.00    +0.000 A 
ATOM     29  C6  UNL     1     155.863 157.338 170.471  0.00  0.00    +0.000 A 
ENDBRANCH  18  27
ENDBRANCH  17  20
ENDBRANCH   1  17
TORSDOF 4
ENDMDL
MODEL 3
REMARK VINA RESULT:      -7.1      4.014      6.901
REMARK  Name = ./3D_structures\o55_MMV1580850_3D.pdb
REMARK  4 active torsions:
REMARK  status: ('A' for Active; 'I' for Inactive)
REMARK    1  A    between atoms: C4_5  and  N1_8
REMARK    2  A    between atoms: C8_10  and  C9_11
REMARK    3  A    between atoms: C9_11  and  N2_12
REMARK    4  A    between atoms: C10_13  and  C17_21
REMARK                            x       y       z     vdW  Elec       q    Type
REMARK                         _______ _______ _______ _____ _____    ______ ____
ROOT
ATOM      1  N2  UNL     1     154.826 158.270 168.409  0.00  0.00    +0.000 N 
ATOM      2  C10 UNL     1     154.025 158.448 169.461  0.00  0.00    +0.000 A 
ATOM      3  N3  UNL     1     154.887 158.590 170.534  0.00  0.00    +0.000 NA
ATOM      4  C11 UNL     1     156.148 158.498 170.132  0.00  0.00    +0.000 A 
ATOM      5  C12 UNL     1     157.384 158.563 170.770  0.00  0.00    +0.000 A 
ATOM      6  C13 UNL     1     158.566 158.428 170.076  0.00  0.00    +0.000 A 
ATOM      7  C14 UNL     1     158.568 158.222 168.713  0.00  0.00    +0.000 A 
ATOM      8  C15 UNL     1     157.342 158.159 168.092  0.00  0.00    +0.000 A 
ATOM      9  C16 UNL     1     156.152 158.293 168.777  0.00  0.00    +0.000 A 
ENDROOT
BRANCH   2  10
ATOM     10  C17 UNL     1     152.579 158.510 169.603  0.00  0.00    +0.000 A 
ATOM     11  C18 UNL     1     151.956 157.356 170.117  0.00  0.00    +0.000 A 
ATOM     12  C19 UNL     1     150.592 157.301 170.293  0.00  0.00    +0.000 A 
ATOM     13  C20 UNL     1     149.807 158.385 169.966  0.00  0.00    +0.000 A 
ATOM     14  C21 UNL     1     150.387 159.529 169.461  0.00  0.00    +0.000 A 
ATOM     15  F2  UNL     1     149.691 160.624 169.121  0.00  0.00    +0.000 F 
ATOM     16  C22 UNL     1     151.769 159.549 169.297  0.00  0.00    +0.000 A 
ENDBRANCH   2  10
BRANCH   1  17
ATOM     17  C9  UNL     1     154.475 158.054 167.039  0.00  0.00    +0.000 C 
BRANCH  17  20
ATOM     18  N1  UNL     1     153.930 161.304 165.360  0.00  0.00    +0.000 N 
ATOM     19  C7  UNL     1     153.545 160.332 166.247  0.00  0.00    +0.000 A 
ATOM     20  C8  UNL     1     154.458 159.311 166.255  0.00  0.00    +0.000 A 
ATOM     21  N4  UNL     1     155.399 159.709 165.344  0.00  0.00    +0.000 NA
ATOM     22  N5  UNL     1     155.053 160.878 164.844  0.00  0.00    +0.000 NA
BRANCH  18  27
ATOM     23  F1  UNL     1     151.095 166.026 164.398  0.00  0.00    +0.000 F 
ATOM     24  C1  UNL     1     151.788 164.876 164.630  0.00  0.00    +0.000 A 
ATOM     25  C2  UNL     1     151.458 164.038 165.672  0.00  0.00    +0.000 A 
ATOM     26  C3  UNL     1     152.173 162.880 165.888  0.00  0.00    +0.000 A 
ATOM     27  C4  UNL     1     153.242 162.511 165.076  0.00  0.00    +0.000 A 
ATOM     28  C5  UNL     1     153.575 163.345 164.031  0.00  0.00    +0.000 A 
ATOM     29  C6  UNL     1     152.855 164.505 163.820  0.00  0.00    +0.000 A 
ENDBRANCH  18  27
ENDBRANCH  17  20
ENDBRANCH   1  17
TORSDOF 4
ENDMDL
MODEL 4
REMARK VINA RESULT:      -6.9      6.470     10.464
REMARK  Name = ./3D_structures\o55_MMV1580850_3D.pdb
REMARK  4 active torsions:
REMARK  status: ('A' for Active; 'I' for Inactive)
REMARK    1  A    between atoms: C4_5  and  N1_8
REMARK    2  A    between atoms: C8_10  and  C9_11
REMARK    3  A    between atoms: C9_11  and  N2_12
REMARK    4  A    between atoms: C10_13  and  C17_21
REMARK                            x       y       z     vdW  Elec       q    Type
REMARK                         _______ _______ _______ _____ _____    ______ ____
ROOT
ATOM      1  N2  UNL     1     149.842 164.534 168.177  0.00  0.00    +0.000 N 
ATOM      2  C10 UNL     1     149.899 164.835 166.879  0.00  0.00    +0.000 A 
ATOM      3  N3  UNL     1     148.590 165.120 166.530  0.00  0.00    +0.000 NA
ATOM      4  C11 UNL     1     147.791 164.991 167.581  0.00  0.00    +0.000 A 
ATOM      5  C12 UNL     1     146.424 165.149 167.795  0.00  0.00    +0.000 A 
ATOM      6  C13 UNL     1     145.855 164.940 169.032  0.00  0.00    +0.000 A 
ATOM      7  C14 UNL     1     146.623 164.563 170.112  0.00  0.00    +0.000 A 
ATOM      8  C15 UNL     1     147.972 164.410 169.891  0.00  0.00    +0.000 A 
ATOM      9  C16 UNL     1     148.554 164.617 168.657  0.00  0.00    +0.000 A 
ENDROOT
BRANCH   2  10
ATOM     10  C17 UNL     1     150.995 164.899 165.926  0.00  0.00    +0.000 A 
ATOM     11  C18 UNL     1     151.727 166.102 165.902  0.00  0.00    +0.000 A 
ATOM     12  C19 UNL     1     152.786 166.276 165.040  0.00  0.00    +0.000 A 
ATOM     13  C20 UNL     1     153.150 165.264 164.178  0.00  0.00    +0.000 A 
ATOM     14  C21 UNL     1     152.453 164.075 164.177  0.00  0.00    +0.000 A 
ATOM     15  F2  UNL     1     152.747 163.045 163.369  0.00  0.00    +0.000 F 
ATOM     16  C22 UNL     1     151.388 163.935 165.063  0.00  0.00    +0.000 A 
ENDBRANCH   2  10
BRANCH   1  17
ATOM     17  C9  UNL     1     150.900 164.143 169.056  0.00  0.00    +0.000 C 
BRANCH  17  20
ATOM     18  N1  UNL     1     152.190 160.737 168.411  0.00  0.00    +0.000 N 
ATOM     19  C7  UNL     1     152.264 162.098 168.257  0.00  0.00    +0.000 A 
ATOM     20  C8  UNL     1     151.238 162.706 168.931  0.00  0.00    +0.000 A 
ATOM     21  N4  UNL     1     150.553 161.661 169.491  0.00  0.00    +0.000 NA
ATOM     22  N5  UNL     1     151.141 160.529 169.163  0.00  0.00    +0.000 NA
BRANCH  18  27
ATOM     23  F1  UNL     1     155.680 157.045 166.075  0.00  0.00    +0.000 F 
ATOM     24  C1  UNL     1     154.829 157.944 166.647  0.00  0.00    +0.000 A 
ATOM     25  C2  UNL     1     154.371 159.040 165.952  0.00  0.00    +0.000 A 
ATOM     26  C3  UNL     1     153.512 159.936 166.551  0.00  0.00    +0.000 A 
ATOM     27  C4  UNL     1     153.075 159.774 167.863  0.00  0.00    +0.000 A 
ATOM     28  C5  UNL     1     153.529 158.677 168.563  0.00  0.00    +0.000 A 
ATOM     29  C6  UNL     1     154.391 157.783 167.957  0.00  0.00    +0.000 A 
ENDBRANCH  18  27
ENDBRANCH  17  20
ENDBRANCH   1  17
TORSDOF 4
ENDMDL
MODEL 5
REMARK VINA RESULT:      -6.9      3.155      6.191
REMARK  Name = ./3D_structures\o55_MMV1580850_3D.pdb
REMARK  4 active torsions:
REMARK  status: ('A' for Active; 'I' for Inactive)
REMARK    1  A    between atoms: C4_5  and  N1_8
REMARK    2  A    between atoms: C8_10  and  C9_11
REMARK    3  A    between atoms: C9_11  and  N2_12
REMARK    4  A    between atoms: C10_13  and  C17_21
REMARK                            x       y       z     vdW  Elec       q    Type
REMARK                         _______ _______ _______ _____ _____    ______ ____
ROOT
ATOM      1  N2  UNL     1     156.301 157.610 167.983  0.00  0.00    +0.000 N 
ATOM      2  C10 UNL     1     157.159 158.314 168.722  0.00  0.00    +0.000 A 
ATOM      3  N3  UNL     1     158.360 158.222 168.043  0.00  0.00    +0.000 NA
ATOM      4  C11 UNL     1     158.218 157.490 166.946  0.00  0.00    +0.000 A 
ATOM      5  C12 UNL     1     159.074 157.085 165.924  0.00  0.00    +0.000 A 
ATOM      6  C13 UNL     1     158.635 156.303 164.879  0.00  0.00    +0.000 A 
ATOM      7  C14 UNL     1     157.322 155.889 164.805  0.00  0.00    +0.000 A 
ATOM      8  C15 UNL     1     156.485 156.295 165.818  0.00  0.00    +0.000 A 
ATOM      9  C16 UNL     1     156.913 157.079 166.870  0.00  0.00    +0.000 A 
ENDROOT
BRANCH   2  10
ATOM     10  C17 UNL     1     157.014 159.061 169.962  0.00  0.00    +0.000 A 
ATOM     11  C18 UNL     1     157.473 160.391 169.942  0.00  0.00    +0.000 A 
ATOM     12  C19 UNL     1     157.387 161.192 171.059  0.00  0.00    +0.000 A 
ATOM     13  C20 UNL     1     156.845 160.697 172.225  0.00  0.00    +0.000 A 
ATOM     14  C21 UNL     1     156.387 159.399 172.277  0.00  0.00    +0.000 A 
ATOM     15  F2  UNL     1     155.847 158.846 173.373  0.00  0.00    +0.000 F 
ATOM     16  C22 UNL     1     156.490 158.619 171.127  0.00  0.00    +0.000 A 
ENDBRANCH   2  10
BRANCH   1  17
ATOM     17  C9  UNL     1     154.914 157.350 168.218  0.00  0.00    +0.000 C 
BRANCH  17  20
ATOM     18  N1  UNL     1     153.106 160.405 167.179  0.00  0.00    +0.000 N 
ATOM     19  C7  UNL     1     154.055 159.439 166.962  0.00  0.00    +0.000 A 
ATOM     20  C8  UNL     1     154.070 158.548 168.002  0.00  0.00    +0.000 A 
ATOM     21  N4  UNL     1     153.097 159.016 168.844  0.00  0.00    +0.000 NA
ATOM     22  N5  UNL     1     152.559 160.101 168.328  0.00  0.00    +0.000 NA
BRANCH  18  27
ATOM     23  F1  UNL     1     151.912 164.832 163.979  0.00  0.00    +0.000 F 
ATOM     24  C1  UNL     1     152.203 163.751 164.757  0.00  0.00    +0.000 A 
ATOM     25  C2  UNL     1     152.508 163.889 166.092  0.00  0.00    +0.000 A 
ATOM     26  C3  UNL     1     152.798 162.782 166.860  0.00  0.00    +0.000 A 
ATOM     27  C4  UNL     1     152.796 161.496 166.327  0.00  0.00    +0.000 A 
ATOM     28  C5  UNL     1     152.491 161.351 164.992  0.00  0.00    +0.000 A 
ATOM     29  C6  UNL     1     152.200 162.465 164.228  0.00  0.00    +0.000 A 
ENDBRANCH  18  27
ENDBRANCH  17  20
ENDBRANCH   1  17
TORSDOF 4
ENDMDL
MODEL 6
REMARK VINA RESULT:      -6.8      3.592      6.858
REMARK  Name = ./3D_structures\o55_MMV1580850_3D.pdb
REMARK  4 active torsions:
REMARK  status: ('A' for Active; 'I' for Inactive)
REMARK    1  A    between atoms: C4_5  and  N1_8
REMARK    2  A    between atoms: C8_10  and  C9_11
REMARK    3  A    between atoms: C9_11  and  N2_12
REMARK    4  A    between atoms: C10_13  and  C17_21
REMARK                            x       y       z     vdW  Elec       q    Type
REMARK                         _______ _______ _______ _____ _____    ______ ____
ROOT
ATOM      1  N2  UNL     1     155.662 158.362 168.884  0.00  0.00    +0.000 N 
ATOM      2  C10 UNL     1     156.940 158.096 168.612  0.00  0.00    +0.000 A 
ATOM      3  N3  UNL     1     157.633 158.546 169.722  0.00  0.00    +0.000 NA
ATOM      4  C11 UNL     1     156.796 159.058 170.615  0.00  0.00    +0.000 A 
ATOM      5  C12 UNL     1     156.944 159.637 171.873  0.00  0.00    +0.000 A 
ATOM      6  C13 UNL     1     155.862 160.094 172.593  0.00  0.00    +0.000 A 
ATOM      7  C14 UNL     1     154.583 159.994 172.090  0.00  0.00    +0.000 A 
ATOM      8  C15 UNL     1     154.447 159.420 170.847  0.00  0.00    +0.000 A 
ATOM      9  C16 UNL     1     155.523 158.959 170.117  0.00  0.00    +0.000 A 
ENDROOT
BRANCH   2  10
ATOM     10  C17 UNL     1     157.601 157.482 167.471  0.00  0.00    +0.000 A 
ATOM     11  C18 UNL     1     158.881 157.976 167.155  0.00  0.00    +0.000 A 
ATOM     12  C19 UNL     1     159.599 157.470 166.095  0.00  0.00    +0.000 A 
ATOM     13  C20 UNL     1     159.070 156.461 165.320  0.00  0.00    +0.000 A 
ATOM     14  C21 UNL     1     157.819 155.956 165.603  0.00  0.00    +0.000 A 
ATOM     15  F2  UNL     1     157.237 154.976 164.896  0.00  0.00    +0.000 F 
ATOM     16  C22 UNL     1     157.123 156.493 166.683  0.00  0.00    +0.000 A 
ENDBRANCH   2  10
BRANCH   1  17
ATOM     17  C9  UNL     1     154.503 158.125 168.079  0.00  0.00    +0.000 C 
BRANCH  17  20
ATOM     18  N1  UNL     1     153.561 161.018 165.977  0.00  0.00    +0.000 N 
ATOM     19  C7  UNL     1     153.448 160.285 167.130  0.00  0.00    +0.000 A 
ATOM     20  C8  UNL     1     154.279 159.197 167.082  0.00  0.00    +0.000 A 
ATOM     21  N4  UNL     1     154.890 159.309 165.862  0.00  0.00    +0.000 NA
ATOM     22  N5  UNL     1     154.443 160.385 165.248  0.00  0.00    +0.000 NA
BRANCH  18  27
ATOM     23  F1  UNL     1     150.882 165.709 164.534  0.00  0.00    +0.000 F 
ATOM     24  C1  UNL     1     151.534 164.566 164.889  0.00  0.00    +0.000 A 
ATOM     25  C2  UNL     1     152.365 163.911 164.007  0.00  0.00    +0.000 A 
ATOM     26  C3  UNL     1     153.014 162.757 164.388  0.00  0.00    +0.000 A 
ATOM     27  C4  UNL     1     152.861 162.210 165.659  0.00  0.00    +0.000 A 
ATOM     28  C5  UNL     1     152.031 162.861 166.545  0.00  0.00    +0.000 A 
ATOM     29  C6  UNL     1     151.384 164.019 166.158  0.00  0.00    +0.000 A 
ENDBRANCH  18  27
ENDBRANCH  17  20
ENDBRANCH   1  17
TORSDOF 4
ENDMDL
MODEL 7
REMARK VINA RESULT:      -6.5      3.533      5.918
REMARK  Name = ./3D_structures\o55_MMV1580850_3D.pdb
REMARK  4 active torsions:
REMARK  status: ('A' for Active; 'I' for Inactive)
REMARK    1  A    between atoms: C4_5  and  N1_8
REMARK    2  A    between atoms: C8_10  and  C9_11
REMARK    3  A    between atoms: C9_11  and  N2_12
REMARK    4  A    between atoms: C10_13  and  C17_21
REMARK                            x       y       z     vdW  Elec       q    Type
REMARK                         _______ _______ _______ _____ _____    ______ ____
ROOT
ATOM      1  N2  UNL     1     159.539 157.272 163.565  0.00  0.00    +0.000 N 
ATOM      2  C10 UNL     1     160.674 157.803 164.025  0.00  0.00    +0.000 A 
ATOM      3  N3  UNL     1     160.872 158.928 163.244  0.00  0.00    +0.000 NA
ATOM      4  C11 UNL     1     159.893 159.056 162.357  0.00  0.00    +0.000 A 
ATOM      5  C12 UNL     1     159.597 159.975 161.353  0.00  0.00    +0.000 A 
ATOM      6  C13 UNL     1     158.476 159.850 160.563  0.00  0.00    +0.000 A 
ATOM      7  C14 UNL     1     157.598 158.802 160.739  0.00  0.00    +0.000 A 
ATOM      8  C15 UNL     1     157.899 157.900 161.732  0.00  0.00    +0.000 A 
ATOM      9  C16 UNL     1     159.018 158.015 162.530  0.00  0.00    +0.000 A 
ENDROOT
BRANCH   2  10
ATOM     10  C17 UNL     1     161.589 157.414 165.085  0.00  0.00    +0.000 A 
ATOM     11  C18 UNL     1     161.505 158.155 166.279  0.00  0.00    +0.000 A 
ATOM     12  C19 UNL     1     162.324 157.876 167.351  0.00  0.00    +0.000 A 
ATOM     13  C20 UNL     1     163.247 156.856 167.269  0.00  0.00    +0.000 A 
ATOM     14  C21 UNL     1     163.354 156.113 166.113  0.00  0.00    +0.000 A 
ATOM     15  F2  UNL     1     164.226 155.106 165.957  0.00  0.00    +0.000 F 
ATOM     16  C22 UNL     1     162.509 156.424 165.051  0.00  0.00    +0.000 A 
ENDBRANCH   2  10
BRANCH   1  17
ATOM     17  C9  UNL     1     158.865 156.084 163.993  0.00  0.00    +0.000 C 
BRANCH  17  20
ATOM     18  N1  UNL     1     157.052 156.868 167.120  0.00  0.00    +0.000 N 
ATOM     19  C7  UNL     1     158.212 156.787 166.393  0.00  0.00    +0.000 A 
ATOM     20  C8  UNL     1     157.946 156.334 165.128  0.00  0.00    +0.000 A 
ATOM     21  N4  UNL     1     156.590 156.149 165.127  0.00  0.00    +0.000 NA
ATOM     22  N5  UNL     1     156.106 156.471 166.309  0.00  0.00    +0.000 NA
BRANCH  18  27
ATOM     23  F1  UNL     1     156.735 158.631 172.417  0.00  0.00    +0.000 F 
ATOM     24  C1  UNL     1     156.810 158.200 171.126  0.00  0.00    +0.000 A 
ATOM     25  C2  UNL     1     157.919 158.449 170.350  0.00  0.00    +0.000 A 
ATOM     26  C3  UNL     1     157.973 158.003 169.047  0.00  0.00    +0.000 A 
ATOM     27  C4  UNL     1     156.925 157.293 168.467  0.00  0.00    +0.000 A 
ATOM     28  C5  UNL     1     155.812 157.040 169.240  0.00  0.00    +0.000 A 
ATOM     29  C6  UNL     1     155.765 157.490 170.545  0.00  0.00    +0.000 A 
ENDBRANCH  18  27
ENDBRANCH  17  20
ENDBRANCH   1  17
TORSDOF 4
ENDMDL
MODEL 8
REMARK VINA RESULT:      -6.5      7.503     11.762
REMARK  Name = ./3D_structures\o55_MMV1580850_3D.pdb
REMARK  4 active torsions:
REMARK  status: ('A' for Active; 'I' for Inactive)
REMARK    1  A    between atoms: C4_5  and  N1_8
REMARK    2  A    between atoms: C8_10  and  C9_11
REMARK    3  A    between atoms: C9_11  and  N2_12
REMARK    4  A    between atoms: C10_13  and  C17_21
REMARK                            x       y       z     vdW  Elec       q    Type
REMARK                         _______ _______ _______ _____ _____    ______ ____
ROOT
ATOM      1  N2  UNL     1     148.713 165.394 167.997  0.00  0.00    +0.000 N 
ATOM      2  C10 UNL     1     148.665 165.205 169.317  0.00  0.00    +0.000 A 
ATOM      3  N3  UNL     1     147.373 164.771 169.559  0.00  0.00    +0.000 NA
ATOM      4  C11 UNL     1     146.684 164.708 168.427  0.00  0.00    +0.000 A 
ATOM      5  C12 UNL     1     145.381 164.348 168.095  0.00  0.00    +0.000 A 
ATOM      6  C13 UNL     1     144.928 164.380 166.795  0.00  0.00    +0.000 A 
ATOM      7  C14 UNL     1     145.756 164.774 165.765  0.00  0.00    +0.000 A 
ATOM      8  C15 UNL     1     147.042 165.127 166.103  0.00  0.00    +0.000 A 
ATOM      9  C16 UNL     1     147.507 165.098 167.402  0.00  0.00    +0.000 A 
ENDROOT
BRANCH   2  10
ATOM     10  C17 UNL     1     149.649 165.365 170.374  0.00  0.00    +0.000 A 
ATOM     11  C18 UNL     1     150.415 164.226 170.687  0.00  0.00    +0.000 A 
ATOM     12  C19 UNL     1     151.376 164.261 171.673  0.00  0.00    +0.000 A 
ATOM     13  C20 UNL     1     151.606 165.425 172.374  0.00  0.00    +0.000 A 
ATOM     14  C21 UNL     1     150.872 166.557 172.092  0.00  0.00    +0.000 A 
ATOM     15  F2  UNL     1     151.037 167.726 172.730  0.00  0.00    +0.000 F 
ATOM     16  C22 UNL     1     149.909 166.484 171.089  0.00  0.00    +0.000 A 
ENDBRANCH   2  10
BRANCH   1  17
ATOM     17  C9  UNL     1     149.802 165.856 167.194  0.00  0.00    +0.000 C 
BRANCH  17  20
ATOM     18  N1  UNL     1     151.777 162.854 166.318  0.00  0.00    +0.000 N 
ATOM     19  C7  UNL     1     151.092 163.617 167.229  0.00  0.00    +0.000 A 
ATOM     20  C8  UNL     1     150.598 164.743 166.626  0.00  0.00    +0.000 A 
ATOM     21  N4  UNL     1     151.012 164.625 165.327  0.00  0.00    +0.000 NA
ATOM     22  N5  UNL     1     151.698 163.509 165.188  0.00  0.00    +0.000 NA
BRANCH  18  27
ATOM     23  F1  UNL     1     154.286 157.997 167.493  0.00  0.00    +0.000 F 
ATOM     24  C1  UNL     1     153.675 159.181 167.204  0.00  0.00    +0.000 A 
ATOM     25  C2  UNL     1     153.000 159.894 168.168  0.00  0.00    +0.000 A 
ATOM     26  C3  UNL     1     152.390 161.089 167.853  0.00  0.00    +0.000 A 
ATOM     27  C4  UNL     1     152.429 161.619 166.566  0.00  0.00    +0.000 A 
ATOM     28  C5  UNL     1     153.104 160.910 165.597  0.00  0.00    +0.000 A 
ATOM     29  C6  UNL     1     153.713 159.713 165.920  0.00  0.00    +0.000 A 
ENDBRANCH  18  27
ENDBRANCH  17  20
ENDBRANCH   1  17
TORSDOF 4
ENDMDL
MODEL 9
REMARK VINA RESULT:      -6.4      3.813      6.231
REMARK  Name = ./3D_structures\o55_MMV1580850_3D.pdb
REMARK  4 active torsions:
REMARK  status: ('A' for Active; 'I' for Inactive)
REMARK    1  A    between atoms: C4_5  and  N1_8
REMARK    2  A    between atoms: C8_10  and  C9_11
REMARK    3  A    between atoms: C9_11  and  N2_12
REMARK    4  A    between atoms: C10_13  and  C17_21
REMARK                            x       y       z     vdW  Elec       q    Type
REMARK                         _______ _______ _______ _____ _____    ______ ____
ROOT
ATOM      1  N2  UNL     1     157.790 158.093 165.602  0.00  0.00    +0.000 N 
ATOM      2  C10 UNL     1     157.644 157.373 166.715  0.00  0.00    +0.000 A 
ATOM      3  N3  UNL     1     157.666 156.058 166.285  0.00  0.00    +0.000 NA
ATOM      4  C11 UNL     1     157.818 156.003 164.968  0.00  0.00    +0.000 A 
ATOM      5  C12 UNL     1     157.905 154.972 164.036  0.00  0.00    +0.000 A 
ATOM      6  C13 UNL     1     158.066 155.221 162.691  0.00  0.00    +0.000 A 
ATOM      7  C14 UNL     1     158.149 156.512 162.214  0.00  0.00    +0.000 A 
ATOM      8  C15 UNL     1     158.063 157.523 163.142  0.00  0.00    +0.000 A 
ATOM      9  C16 UNL     1     157.902 157.286 164.492  0.00  0.00    +0.000 A 
ENDROOT
BRANCH   2  10
ATOM     10  C17 UNL     1     157.493 157.737 168.114  0.00  0.00    +0.000 A 
ATOM     11  C18 UNL     1     158.667 158.137 168.782  0.00  0.00    +0.000 A 
ATOM     12  C19 UNL     1     158.643 158.503 170.109  0.00  0.00    +0.000 A 
ATOM     13  C20 UNL     1     157.458 158.483 170.811  0.00  0.00    +0.000 A 
ATOM     14  C21 UNL     1     156.292 158.096 170.187  0.00  0.00    +0.000 A 
ATOM     15  F2  UNL     1     155.101 158.051 170.803  0.00  0.00    +0.000 F 
ATOM     16  C22 UNL     1     156.354 157.733 168.844  0.00  0.00    +0.000 A 
ENDBRANCH   2  10
BRANCH   1  17
ATOM     17  C9  UNL     1     157.821 159.515 165.448  0.00  0.00    +0.000 C 
BRANCH  17  20
ATOM     18  N1  UNL     1     154.713 161.481 165.049  0.00  0.00    +0.000 N 
ATOM     19  C7  UNL     1     156.081 161.385 165.054  0.00  0.00    +0.000 A 
ATOM     20  C8  UNL     1     156.464 160.100 165.332  0.00  0.00    +0.000 A 
ATOM     21  N4  UNL     1     155.279 159.435 165.491  0.00  0.00    +0.000 NA
ATOM     22  N5  UNL     1     154.281 160.276 165.318  0.00  0.00    +0.000 NA
BRANCH  18  27
ATOM     23  F1  UNL     1     151.530 165.992 164.167  0.00  0.00    +0.000 F 
ATOM     24  C1  UNL     1     152.308 164.893 164.380  0.00  0.00    +0.000 A 
ATOM     25  C2  UNL     1     151.817 163.782 165.028  0.00  0.00    +0.000 A 
ATOM     26  C3  UNL     1     152.623 162.682 165.233  0.00  0.00    +0.000 A 
ATOM     27  C4  UNL     1     153.946 162.648 164.801  0.00  0.00    +0.000 A 
ATOM     28  C5  UNL     1     154.442 163.757 164.151  0.00  0.00    +0.000 A 
ATOM     29  C6  UNL     1     153.629 164.856 163.949  0.00  0.00    +0.000 A 
ENDBRANCH  18  27
ENDBRANCH  17  20
ENDBRANCH   1  17
TORSDOF 4
ENDMDL
