MODEL 1
REMARK VINA RESULT:      -6.5      0.000      0.000
REMARK  Name = ./3D_structures\o58_MMV1578925_3D.pdb
REMARK  6 active torsions:
REMARK  status: ('A' for Active; 'I' for Inactive)
REMARK    1  A    between atoms: C1_1  and  C2_2
REMARK    2  A    between atoms: C2_2  and  O1_3
REMARK    3  A    between atoms: C2_2  and  C9_12
REMARK    4  A    between atoms: O1_3  and  C3_4
REMARK    5  A    between atoms: N1_14  and  C10_15
REMARK    6  A    between atoms: C10_15  and  C11_16
REMARK                            x       y       z     vdW  Elec       q    Type
REMARK                         _______ _______ _______ _____ _____    ______ ____
ROOT
ATOM      1  C9  UNL     1     157.562 155.796 165.260  0.00  0.00    +0.000 C 
ATOM      2  O2  UNL     1     158.811 155.819 165.296  0.00  0.00    +0.000 OA
ATOM      3  N1  UNL     1     156.924 154.968 164.306  0.00  0.00    +0.000 N 
ATOM      4  H8  UNL     1     155.879 154.983 164.317  0.00  0.00    +0.000 HD
ENDROOT
BRANCH   1   6
ATOM      5  C1  UNL     1     156.761 158.066 165.599  0.00  0.00    +0.000 C 
ATOM      6  C2  UNL     1     156.789 156.656 166.239  0.00  0.00    +0.000 C 
BRANCH   6   7
ATOM      7  O1  UNL     1     157.440 156.682 167.413  0.00  0.00    +0.000 OA
BRANCH   7   8
ATOM      8  C3  UNL     1     157.251 157.276 168.608  0.00  0.00    +0.000 A 
ATOM      9  C4  UNL     1     156.024 157.002 169.277  0.00  0.00    +0.000 A 
ATOM     10  C5  UNL     1     155.712 157.537 170.487  0.00  0.00    +0.000 A 
ATOM     11  C6  UNL     1     156.572 158.386 171.148  0.00  0.00    +0.000 A 
ATOM     12 CL1  UNL     1     156.125 159.047 172.699  0.00  0.00    +0.000 Cl
ATOM     13  C7  UNL     1     157.757 158.664 170.522  0.00  0.00    +0.000 A 
ATOM     14  C8  UNL     1     158.100 158.122 169.272  0.00  0.00    +0.000 A 
ATOM     15 CL2  UNL     1     159.652 158.553 168.583  0.00  0.00    +0.000 Cl
ENDBRANCH   7   8
ENDBRANCH   6   7
ENDBRANCH   1   6
BRANCH   3  16
ATOM     16  C10 UNL     1     157.607 154.139 163.360  0.00  0.00    +0.000 C 
BRANCH  16  17
ATOM     17  C11 UNL     1     157.721 152.729 163.812  0.00  0.00    +0.000 A 
ATOM     18  C12 UNL     1     156.660 151.852 163.735  0.00  0.00    +0.000 A 
ATOM     19  C13 UNL     1     156.788 150.536 164.162  0.00  0.00    +0.000 A 
ATOM     20  C14 UNL     1     157.968 150.059 164.675  0.00  0.00    +0.000 A 
ATOM     21  O3  UNL     1     158.387 148.811 165.176  0.00  0.00    +0.000 OA
ATOM     22  C15 UNL     1     159.819 148.800 165.049  0.00  0.00    +0.000 C 
ATOM     23  O4  UNL     1     160.079 150.188 165.304  0.00  0.00    +0.000 OA
ATOM     24  C16 UNL     1     159.036 150.932 164.756  0.00  0.00    +0.000 A 
ATOM     25  C17 UNL     1     158.906 152.250 164.327  0.00  0.00    +0.000 A 
ENDBRANCH  16  17
ENDBRANCH   3  16
TORSDOF 5
ENDMDL
MODEL 2
REMARK VINA RESULT:      -6.2      4.819      8.627
REMARK  Name = ./3D_structures\o58_MMV1578925_3D.pdb
REMARK  6 active torsions:
REMARK  status: ('A' for Active; 'I' for Inactive)
REMARK    1  A    between atoms: C1_1  and  C2_2
REMARK    2  A    between atoms: C2_2  and  O1_3
REMARK    3  A    between atoms: C2_2  and  C9_12
REMARK    4  A    between atoms: O1_3  and  C3_4
REMARK    5  A    between atoms: N1_14  and  C10_15
REMARK    6  A    between atoms: C10_15  and  C11_16
REMARK                            x       y       z     vdW  Elec       q    Type
REMARK                         _______ _______ _______ _____ _____    ______ ____
ROOT
ATOM      1  C9  UNL     1     157.285 157.690 167.466  0.00  0.00    +0.000 C 
ATOM      2  O2  UNL     1     157.817 158.722 167.005  0.00  0.00    +0.000 OA
ATOM      3  N1  UNL     1     157.393 157.428 168.853  0.00  0.00    +0.000 N 
ATOM      4  H8  UNL     1     156.931 156.553 169.188  0.00  0.00    +0.000 HD
ENDROOT
BRANCH   1   6
ATOM      5  C1  UNL     1     157.203 157.005 165.134  0.00  0.00    +0.000 C 
ATOM      6  C2  UNL     1     156.550 156.764 166.518  0.00  0.00    +0.000 C 
BRANCH   6   7
ATOM      7  O1  UNL     1     155.250 157.101 166.492  0.00  0.00    +0.000 OA
BRANCH   7   8
ATOM      8  C3  UNL     1     154.534 158.205 166.780  0.00  0.00    +0.000 A 
ATOM      9  C4  UNL     1     154.364 159.155 165.732  0.00  0.00    +0.000 A 
ATOM     10  C5  UNL     1     153.664 160.309 165.893  0.00  0.00    +0.000 A 
ATOM     11  C6  UNL     1     153.068 160.634 167.092  0.00  0.00    +0.000 A 
ATOM     12 CL1  UNL     1     152.180 162.128 167.248  0.00  0.00    +0.000 Cl
ATOM     13  C7  UNL     1     153.220 159.735 168.113  0.00  0.00    +0.000 A 
ATOM     14  C8  UNL     1     153.940 158.538 167.969  0.00  0.00    +0.000 A 
ATOM     15 CL2  UNL     1     154.053 157.471 169.353  0.00  0.00    +0.000 Cl
ENDBRANCH   7   8
ENDBRANCH   6   7
ENDBRANCH   1   6
BRANCH   3  16
ATOM     16  C10 UNL     1     158.077 158.268 169.788  0.00  0.00    +0.000 C 
BRANCH  16  17
ATOM     17  C11 UNL     1     157.152 159.138 170.558  0.00  0.00    +0.000 A 
ATOM     18  C12 UNL     1     156.607 160.282 170.013  0.00  0.00    +0.000 A 
ATOM     19  C13 UNL     1     155.743 161.083 170.751  0.00  0.00    +0.000 A 
ATOM     20  C14 UNL     1     155.400 160.770 172.043  0.00  0.00    +0.000 A 
ATOM     21  O3  UNL     1     154.574 161.371 173.012  0.00  0.00    +0.000 OA
ATOM     22  C15 UNL     1     154.212 160.321 173.923  0.00  0.00    +0.000 C 
ATOM     23  O4  UNL     1     155.430 159.562 173.889  0.00  0.00    +0.000 OA
ATOM     24  C16 UNL     1     155.943 159.626 172.595  0.00  0.00    +0.000 A 
ATOM     25  C17 UNL     1     156.808 158.824 171.855  0.00  0.00    +0.000 A 
ENDBRANCH  16  17
ENDBRANCH   3  16
TORSDOF 5
ENDMDL
MODEL 3
REMARK VINA RESULT:      -6.1      4.951      8.543
REMARK  Name = ./3D_structures\o58_MMV1578925_3D.pdb
REMARK  6 active torsions:
REMARK  status: ('A' for Active; 'I' for Inactive)
REMARK    1  A    between atoms: C1_1  and  C2_2
REMARK    2  A    between atoms: C2_2  and  O1_3
REMARK    3  A    between atoms: C2_2  and  C9_12
REMARK    4  A    between atoms: O1_3  and  C3_4
REMARK    5  A    between atoms: N1_14  and  C10_15
REMARK    6  A    between atoms: C10_15  and  C11_16
REMARK                            x       y       z     vdW  Elec       q    Type
REMARK                         _______ _______ _______ _____ _____    ______ ____
ROOT
ATOM      1  C9  UNL     1     157.445 157.891 167.450  0.00  0.00    +0.000 C 
ATOM      2  O2  UNL     1     157.713 159.020 166.988  0.00  0.00    +0.000 OA
ATOM      3  N1  UNL     1     157.834 157.588 168.777  0.00  0.00    +0.000 N 
ATOM      4  H8  UNL     1     157.587 156.631 169.116  0.00  0.00    +0.000 HD
ENDROOT
BRANCH   1   6
ATOM      5  C1  UNL     1     157.090 157.296 165.120  0.00  0.00    +0.000 C 
ATOM      6  C2  UNL     1     156.716 156.898 166.569  0.00  0.00    +0.000 C 
BRANCH   6   7
ATOM      7  O1  UNL     1     155.393 157.020 166.767  0.00  0.00    +0.000 OA
BRANCH   7   8
ATOM      8  C3  UNL     1     154.599 157.812 167.513  0.00  0.00    +0.000 A 
ATOM      9  C4  UNL     1     154.240 157.332 168.805  0.00  0.00    +0.000 A 
ATOM     10  C5  UNL     1     153.445 158.034 169.655  0.00  0.00    +0.000 A 
ATOM     11  C6  UNL     1     152.934 159.268 169.317  0.00  0.00    +0.000 A 
ATOM     12 CL1  UNL     1     151.919 160.130 170.444  0.00  0.00    +0.000 Cl
ATOM     13  C7  UNL     1     153.266 159.748 168.079  0.00  0.00    +0.000 A 
ATOM     14  C8  UNL     1     154.085 159.039 167.185  0.00  0.00    +0.000 A 
ATOM     15 CL2  UNL     1     154.439 159.770 165.633  0.00  0.00    +0.000 Cl
ENDBRANCH   7   8
ENDBRANCH   6   7
ENDBRANCH   1   6
BRANCH   3  16
ATOM     16  C10 UNL     1     158.525 158.489 169.648  0.00  0.00    +0.000 C 
BRANCH  16  17
ATOM     17  C11 UNL     1     157.611 159.194 170.583  0.00  0.00    +0.000 A 
ATOM     18  C12 UNL     1     156.851 158.512 171.510  0.00  0.00    +0.000 A 
ATOM     19  C13 UNL     1     156.002 159.190 172.377  0.00  0.00    +0.000 A 
ATOM     20  C14 UNL     1     155.888 160.558 172.346  0.00  0.00    +0.000 A 
ATOM     21  O3  UNL     1     155.133 161.496 173.077  0.00  0.00    +0.000 OA
ATOM     22  C15 UNL     1     155.835 162.744 172.952  0.00  0.00    +0.000 C 
ATOM     23  O4  UNL     1     156.333 162.592 171.615  0.00  0.00    +0.000 OA
ATOM     24  C16 UNL     1     156.646 161.248 171.420  0.00  0.00    +0.000 A 
ATOM     25  C17 UNL     1     157.496 160.567 170.553  0.00  0.00    +0.000 A 
ENDBRANCH  16  17
ENDBRANCH   3  16
TORSDOF 5
ENDMDL
MODEL 4
REMARK VINA RESULT:      -6.0     10.495     14.210
REMARK  Name = ./3D_structures\o58_MMV1578925_3D.pdb
REMARK  6 active torsions:
REMARK  status: ('A' for Active; 'I' for Inactive)
REMARK    1  A    between atoms: C1_1  and  C2_2
REMARK    2  A    between atoms: C2_2  and  O1_3
REMARK    3  A    between atoms: C2_2  and  C9_12
REMARK    4  A    between atoms: O1_3  and  C3_4
REMARK    5  A    between atoms: N1_14  and  C10_15
REMARK    6  A    between atoms: C10_15  and  C11_16
REMARK                            x       y       z     vdW  Elec       q    Type
REMARK                         _______ _______ _______ _____ _____    ______ ____
ROOT
ATOM      1  C9  UNL     1     148.847 161.165 168.278  0.00  0.00    +0.000 C 
ATOM      2  O2  UNL     1     149.365 161.598 169.329  0.00  0.00    +0.000 OA
ATOM      3  N1  UNL     1     148.521 162.083 167.250  0.00  0.00    +0.000 N 
ATOM      4  H8  UNL     1     148.090 161.670 166.392  0.00  0.00    +0.000 HD
ENDROOT
BRANCH   1   6
ATOM      5  C1  UNL     1     147.163 159.564 167.561  0.00  0.00    +0.000 C 
ATOM      6  C2  UNL     1     148.590 159.677 168.152  0.00  0.00    +0.000 C 
BRANCH   6   7
ATOM      7  O1  UNL     1     148.643 159.116 169.371  0.00  0.00    +0.000 OA
BRANCH   7   8
ATOM      8  C3  UNL     1     149.146 157.977 169.886  0.00  0.00    +0.000 A 
ATOM      9  C4  UNL     1     148.225 156.921 170.139  0.00  0.00    +0.000 A 
ATOM     10  C5  UNL     1     148.604 155.723 170.657  0.00  0.00    +0.000 A 
ATOM     11  C6  UNL     1     149.918 155.453 170.972  0.00  0.00    +0.000 A 
ATOM     12 CL1  UNL     1     150.354 153.899 171.634  0.00  0.00    +0.000 Cl
ATOM     13  C7  UNL     1     150.820 156.454 170.738  0.00  0.00    +0.000 A 
ATOM     14  C8  UNL     1     150.450 157.700 170.204  0.00  0.00    +0.000 A 
ATOM     15 CL2  UNL     1     151.706 158.894 169.947  0.00  0.00    +0.000 Cl
ENDBRANCH   7   8
ENDBRANCH   6   7
ENDBRANCH   1   6
BRANCH   3  16
ATOM     16  C10 UNL     1     148.741 163.495 167.321  0.00  0.00    +0.000 C 
BRANCH  16  17
ATOM     17  C11 UNL     1     147.567 164.280 166.862  0.00  0.00    +0.000 A 
ATOM     18  C12 UNL     1     146.300 163.736 166.815  0.00  0.00    +0.000 A 
ATOM     19  C13 UNL     1     145.215 164.489 166.382  0.00  0.00    +0.000 A 
ATOM     20  C14 UNL     1     145.359 165.796 165.987  0.00  0.00    +0.000 A 
ATOM     21  O3  UNL     1     144.471 166.781 165.513  0.00  0.00    +0.000 OA
ATOM     22  C15 UNL     1     145.104 168.042 165.787  0.00  0.00    +0.000 C 
ATOM     23  O4  UNL     1     146.472 167.658 165.583  0.00  0.00    +0.000 OA
ATOM     24  C16 UNL     1     146.625 166.347 166.031  0.00  0.00    +0.000 A 
ATOM     25  C17 UNL     1     147.711 165.592 166.465  0.00  0.00    +0.000 A 
ENDBRANCH  16  17
ENDBRANCH   3  16
TORSDOF 5
ENDMDL
MODEL 5
REMARK VINA RESULT:      -6.0      4.671      7.131
REMARK  Name = ./3D_structures\o58_MMV1578925_3D.pdb
REMARK  6 active torsions:
REMARK  status: ('A' for Active; 'I' for Inactive)
REMARK    1  A    between atoms: C1_1  and  C2_2
REMARK    2  A    between atoms: C2_2  and  O1_3
REMARK    3  A    between atoms: C2_2  and  C9_12
REMARK    4  A    between atoms: O1_3  and  C3_4
REMARK    5  A    between atoms: N1_14  and  C10_15
REMARK    6  A    between atoms: C10_15  and  C11_16
REMARK                            x       y       z     vdW  Elec       q    Type
REMARK                         _______ _______ _______ _____ _____    ______ ____
ROOT
ATOM      1  C9  UNL     1     154.174 160.276 171.549  0.00  0.00    +0.000 C 
ATOM      2  O2  UNL     1     153.818 161.413 171.173  0.00  0.00    +0.000 OA
ATOM      3  N1  UNL     1     153.868 159.161 170.732  0.00  0.00    +0.000 N 
ATOM      4  H8  UNL     1     154.188 158.233 171.090  0.00  0.00    +0.000 HD
ENDROOT
BRANCH   1   6
ATOM      5  C1  UNL     1     154.417 161.325 173.728  0.00  0.00    +0.000 C 
ATOM      6  C2  UNL     1     154.917 160.142 172.863  0.00  0.00    +0.000 C 
BRANCH   6   7
ATOM      7  O1  UNL     1     156.237 160.247 172.636  0.00  0.00    +0.000 OA
BRANCH   7   8
ATOM      8  C3  UNL     1     157.055 160.029 171.589  0.00  0.00    +0.000 A 
ATOM      9  C4  UNL     1     157.436 158.680 171.338  0.00  0.00    +0.000 A 
ATOM     10  C5  UNL     1     158.257 158.326 170.314  0.00  0.00    +0.000 A 
ATOM     11  C6  UNL     1     158.775 159.261 169.444  0.00  0.00    +0.000 A 
ATOM     12 CL1  UNL     1     159.823 158.756 168.144  0.00  0.00    +0.000 Cl
ATOM     13  C7  UNL     1     158.422 160.564 169.668  0.00  0.00    +0.000 A 
ATOM     14  C8  UNL     1     157.576 160.952 170.720  0.00  0.00    +0.000 A 
ATOM     15 CL2  UNL     1     157.198 162.653 170.891  0.00  0.00    +0.000 Cl
ENDBRANCH   7   8
ENDBRANCH   6   7
ENDBRANCH   1   6
BRANCH   3  16
ATOM     16  C10 UNL     1     153.169 159.233 169.486  0.00  0.00    +0.000 C 
BRANCH  16  17
ATOM     17  C11 UNL     1     153.975 158.726 168.347  0.00  0.00    +0.000 A 
ATOM     18  C12 UNL     1     153.721 159.111 167.047  0.00  0.00    +0.000 A 
ATOM     19  C13 UNL     1     154.488 158.624 165.994  0.00  0.00    +0.000 A 
ATOM     20  C14 UNL     1     155.523 157.747 166.205  0.00  0.00    +0.000 A 
ATOM     21  O3  UNL     1     156.449 157.101 165.364  0.00  0.00    +0.000 OA
ATOM     22  C15 UNL     1     157.568 156.764 166.199  0.00  0.00    +0.000 C 
ATOM     23  O4  UNL     1     156.864 156.482 167.418  0.00  0.00    +0.000 OA
ATOM     24  C16 UNL     1     155.783 157.357 167.505  0.00  0.00    +0.000 A 
ATOM     25  C17 UNL     1     155.014 157.845 168.558  0.00  0.00    +0.000 A 
ENDBRANCH  16  17
ENDBRANCH   3  16
TORSDOF 5
ENDMDL
MODEL 6
REMARK VINA RESULT:      -6.0      4.463      6.909
REMARK  Name = ./3D_structures\o58_MMV1578925_3D.pdb
REMARK  6 active torsions:
REMARK  status: ('A' for Active; 'I' for Inactive)
REMARK    1  A    between atoms: C1_1  and  C2_2
REMARK    2  A    between atoms: C2_2  and  O1_3
REMARK    3  A    between atoms: C2_2  and  C9_12
REMARK    4  A    between atoms: O1_3  and  C3_4
REMARK    5  A    between atoms: N1_14  and  C10_15
REMARK    6  A    between atoms: C10_15  and  C11_16
REMARK                            x       y       z     vdW  Elec       q    Type
REMARK                         _______ _______ _______ _____ _____    ______ ____
ROOT
ATOM      1  C9  UNL     1     156.592 159.089 171.538  0.00  0.00    +0.000 C 
ATOM      2  O2  UNL     1     156.649 157.987 172.124  0.00  0.00    +0.000 OA
ATOM      3  N1  UNL     1     157.539 159.373 170.525  0.00  0.00    +0.000 N 
ATOM      4  H8  UNL     1     157.449 160.307 170.067  0.00  0.00    +0.000 HD
ENDROOT
BRANCH   1   6
ATOM      5  C1  UNL     1     155.247 159.787 173.439  0.00  0.00    +0.000 C 
ATOM      6  C2  UNL     1     155.512 160.072 171.941  0.00  0.00    +0.000 C 
BRANCH   6   7
ATOM      7  O1  UNL     1     154.408 159.837 171.212  0.00  0.00    +0.000 OA
BRANCH   7   8
ATOM      8  C3  UNL     1     154.021 160.075 169.944  0.00  0.00    +0.000 A 
ATOM      9  C4  UNL     1     154.075 158.979 169.036  0.00  0.00    +0.000 A 
ATOM     10  C5  UNL     1     153.712 159.088 167.731  0.00  0.00    +0.000 A 
ATOM     11  C6  UNL     1     153.264 160.277 167.199  0.00  0.00    +0.000 A 
ATOM     12 CL1  UNL     1     152.809 160.365 165.517  0.00  0.00    +0.000 Cl
ATOM     13  C7  UNL     1     153.205 161.344 168.054  0.00  0.00    +0.000 A 
ATOM     14  C8  UNL     1     153.575 161.254 169.406  0.00  0.00    +0.000 A 
ATOM     15 CL2  UNL     1     153.447 162.695 170.395  0.00  0.00    +0.000 Cl
ENDBRANCH   7   8
ENDBRANCH   6   7
ENDBRANCH   1   6
BRANCH   3  16
ATOM     16  C10 UNL     1     158.578 158.481 170.110  0.00  0.00    +0.000 C 
BRANCH  16  17
ATOM     17  C11 UNL     1     158.462 158.092 168.682  0.00  0.00    +0.000 A 
ATOM     18  C12 UNL     1     159.455 158.374 167.767  0.00  0.00    +0.000 A 
ATOM     19  C13 UNL     1     159.326 158.001 166.435  0.00  0.00    +0.000 A 
ATOM     20  C14 UNL     1     158.213 157.340 165.978  0.00  0.00    +0.000 A 
ATOM     21  O3  UNL     1     157.810 156.848 164.721  0.00  0.00    +0.000 OA
ATOM     22  C15 UNL     1     156.844 155.821 164.995  0.00  0.00    +0.000 C 
ATOM     23  O4  UNL     1     156.228 156.393 166.159  0.00  0.00    +0.000 OA
ATOM     24  C16 UNL     1     157.214 157.054 166.888  0.00  0.00    +0.000 A 
ATOM     25  C17 UNL     1     157.344 157.428 168.223  0.00  0.00    +0.000 A 
ENDBRANCH  16  17
ENDBRANCH   3  16
TORSDOF 5
ENDMDL
MODEL 7
REMARK VINA RESULT:      -5.9      4.977      6.706
REMARK  Name = ./3D_structures\o58_MMV1578925_3D.pdb
REMARK  6 active torsions:
REMARK  status: ('A' for Active; 'I' for Inactive)
REMARK    1  A    between atoms: C1_1  and  C2_2
REMARK    2  A    between atoms: C2_2  and  O1_3
REMARK    3  A    between atoms: C2_2  and  C9_12
REMARK    4  A    between atoms: O1_3  and  C3_4
REMARK    5  A    between atoms: N1_14  and  C10_15
REMARK    6  A    between atoms: C10_15  and  C11_16
REMARK                            x       y       z     vdW  Elec       q    Type
REMARK                         _______ _______ _______ _____ _____    ______ ____
ROOT
ATOM      1  C9  UNL     1     155.470 158.311 170.568  0.00  0.00    +0.000 C 
ATOM      2  O2  UNL     1     154.833 159.374 170.412  0.00  0.00    +0.000 OA
ATOM      3  N1  UNL     1     155.273 157.256 169.645  0.00  0.00    +0.000 N 
ATOM      4  H8  UNL     1     155.829 156.388 169.819  0.00  0.00    +0.000 HD
ENDROOT
BRANCH   1   6
ATOM      5  C1  UNL     1     155.923 159.242 172.767  0.00  0.00    +0.000 C 
ATOM      6  C2  UNL     1     156.425 158.199 171.739  0.00  0.00    +0.000 C 
BRANCH   6   7
ATOM      7  O1  UNL     1     157.667 158.501 171.327  0.00  0.00    +0.000 OA
BRANCH   7   8
ATOM      8  C3  UNL     1     158.210 159.041 170.219  0.00  0.00    +0.000 A 
ATOM      9  C4  UNL     1     158.769 158.140 169.268  0.00  0.00    +0.000 A 
ATOM     10  C5  UNL     1     159.346 158.557 168.111  0.00  0.00    +0.000 A 
ATOM     11  C6  UNL     1     159.425 159.892 167.780  0.00  0.00    +0.000 A 
ATOM     12 CL1  UNL     1     160.175 160.377 166.282  0.00  0.00    +0.000 Cl
ATOM     13  C7  UNL     1     158.894 160.776 168.680  0.00  0.00    +0.000 A 
ATOM     14  C8  UNL     1     158.294 160.367 169.882  0.00  0.00    +0.000 A 
ATOM     15 CL2  UNL     1     157.646 161.601 170.943  0.00  0.00    +0.000 Cl
ENDBRANCH   7   8
ENDBRANCH   6   7
ENDBRANCH   1   6
BRANCH   3  16
ATOM     16  C10 UNL     1     154.383 157.311 168.525  0.00  0.00    +0.000 C 
BRANCH  16  17
ATOM     17  C11 UNL     1     155.014 157.909 167.321  0.00  0.00    +0.000 A 
ATOM     18  C12 UNL     1     154.597 159.118 166.805  0.00  0.00    +0.000 A 
ATOM     19  C13 UNL     1     155.202 159.660 165.677  0.00  0.00    +0.000 A 
ATOM     20  C14 UNL     1     156.233 159.018 165.036  0.00  0.00    +0.000 A 
ATOM     21  O3  UNL     1     157.019 159.312 163.905  0.00  0.00    +0.000 OA
ATOM     22  C15 UNL     1     158.232 158.559 164.066  0.00  0.00    +0.000 C 
ATOM     23  O4  UNL     1     157.692 157.396 164.712  0.00  0.00    +0.000 OA
ATOM     24  C16 UNL     1     156.656 157.807 165.547  0.00  0.00    +0.000 A 
ATOM     25  C17 UNL     1     156.049 157.265 166.678  0.00  0.00    +0.000 A 
ENDBRANCH  16  17
ENDBRANCH   3  16
TORSDOF 5
ENDMDL
MODEL 8
REMARK VINA RESULT:      -5.9      3.971      7.983
REMARK  Name = ./3D_structures\o58_MMV1578925_3D.pdb
REMARK  6 active torsions:
REMARK  status: ('A' for Active; 'I' for Inactive)
REMARK    1  A    between atoms: C1_1  and  C2_2
REMARK    2  A    between atoms: C2_2  and  O1_3
REMARK    3  A    between atoms: C2_2  and  C9_12
REMARK    4  A    between atoms: O1_3  and  C3_4
REMARK    5  A    between atoms: N1_14  and  C10_15
REMARK    6  A    between atoms: C10_15  and  C11_16
REMARK                            x       y       z     vdW  Elec       q    Type
REMARK                         _______ _______ _______ _____ _____    ______ ____
ROOT
ATOM      1  C9  UNL     1     156.180 157.574 166.138  0.00  0.00    +0.000 C 
ATOM      2  O2  UNL     1     155.439 156.654 165.733  0.00  0.00    +0.000 OA
ATOM      3  N1  UNL     1     155.642 158.877 166.265  0.00  0.00    +0.000 N 
ATOM      4  H8  UNL     1     156.302 159.611 166.608  0.00  0.00    +0.000 HD
ENDROOT
BRANCH   1   6
ATOM      5  C1  UNL     1     157.980 156.037 165.584  0.00  0.00    +0.000 C 
ATOM      6  C2  UNL     1     157.622 157.253 166.474  0.00  0.00    +0.000 C 
BRANCH   6   7
ATOM      7  O1  UNL     1     157.711 156.930 167.774  0.00  0.00    +0.000 OA
BRANCH   7   8
ATOM      8  C3  UNL     1     157.405 157.531 168.940  0.00  0.00    +0.000 A 
ATOM      9  C4  UNL     1     156.318 156.987 169.682  0.00  0.00    +0.000 A 
ATOM     10  C5  UNL     1     155.910 157.501 170.872  0.00  0.00    +0.000 A 
ATOM     11  C6  UNL     1     156.531 158.591 171.442  0.00  0.00    +0.000 A 
ATOM     12 CL1  UNL     1     155.969 159.213 172.972  0.00  0.00    +0.000 Cl
ATOM     13  C7  UNL     1     157.578 159.131 170.745  0.00  0.00    +0.000 A 
ATOM     14  C8  UNL     1     158.016 158.616 169.514  0.00  0.00    +0.000 A 
ATOM     15 CL2  UNL     1     159.373 159.396 168.729  0.00  0.00    +0.000 Cl
ENDBRANCH   7   8
ENDBRANCH   6   7
ENDBRANCH   1   6
BRANCH   3  16
ATOM     16  C10 UNL     1     154.289 159.232 165.960  0.00  0.00    +0.000 C 
BRANCH  16  17
ATOM     17  C11 UNL     1     153.483 159.512 167.175  0.00  0.00    +0.000 A 
ATOM     18  C12 UNL     1     153.494 158.669 168.267  0.00  0.00    +0.000 A 
ATOM     19  C13 UNL     1     152.732 158.950 169.395  0.00  0.00    +0.000 A 
ATOM     20  C14 UNL     1     151.943 160.071 169.468  0.00  0.00    +0.000 A 
ATOM     21  O3  UNL     1     151.085 160.605 170.449  0.00  0.00    +0.000 OA
ATOM     22  C15 UNL     1     150.987 162.009 170.160  0.00  0.00    +0.000 C 
ATOM     23  O4  UNL     1     151.057 161.951 168.728  0.00  0.00    +0.000 OA
ATOM     24  C16 UNL     1     151.927 160.920 168.378  0.00  0.00    +0.000 A 
ATOM     25  C17 UNL     1     152.691 160.638 167.249  0.00  0.00    +0.000 A 
ENDBRANCH  16  17
ENDBRANCH   3  16
TORSDOF 5
ENDMDL
MODEL 9
REMARK VINA RESULT:      -5.8      4.176      8.155
REMARK  Name = ./3D_structures\o58_MMV1578925_3D.pdb
REMARK  6 active torsions:
REMARK  status: ('A' for Active; 'I' for Inactive)
REMARK    1  A    between atoms: C1_1  and  C2_2
REMARK    2  A    between atoms: C2_2  and  O1_3
REMARK    3  A    between atoms: C2_2  and  C9_12
REMARK    4  A    between atoms: O1_3  and  C3_4
REMARK    5  A    between atoms: N1_14  and  C10_15
REMARK    6  A    between atoms: C10_15  and  C11_16
REMARK                            x       y       z     vdW  Elec       q    Type
REMARK                         _______ _______ _______ _____ _____    ______ ____
ROOT
ATOM      1  C9  UNL     1     157.267 158.422 166.216  0.00  0.00    +0.000 C 
ATOM      2  O2  UNL     1     158.008 159.414 166.376  0.00  0.00    +0.000 OA
ATOM      3  N1  UNL     1     155.994 158.609 165.626  0.00  0.00    +0.000 N 
ATOM      4  H8  UNL     1     155.413 157.748 165.515  0.00  0.00    +0.000 HD
ENDROOT
BRANCH   1   6
ATOM      5  C1  UNL     1     157.217 156.068 165.610  0.00  0.00    +0.000 C 
ATOM      6  C2  UNL     1     157.764 157.062 166.664  0.00  0.00    +0.000 C 
BRANCH   6   7
ATOM      7  O1  UNL     1     157.263 156.787 167.879  0.00  0.00    +0.000 OA
BRANCH   7   8
ATOM      8  C3  UNL     1     156.902 157.507 168.958  0.00  0.00    +0.000 A 
ATOM      9  C4  UNL     1     157.950 157.988 169.794  0.00  0.00    +0.000 A 
ATOM     10  C5  UNL     1     157.719 158.726 170.912  0.00  0.00    +0.000 A 
ATOM     11  C6  UNL     1     156.443 159.059 171.309  0.00  0.00    +0.000 A 
ATOM     12 CL1  UNL     1     156.198 160.010 172.752  0.00  0.00    +0.000 Cl
ATOM     13  C7  UNL     1     155.420 158.607 170.520  0.00  0.00    +0.000 A 
ATOM     14  C8  UNL     1     155.636 157.843 169.362  0.00  0.00    +0.000 A 
ATOM     15 CL2  UNL     1     154.239 157.333 168.437  0.00  0.00    +0.000 Cl
ENDBRANCH   7   8
ENDBRANCH   6   7
ENDBRANCH   1   6
BRANCH   3  16
ATOM     16  C10 UNL     1     155.478 159.870 165.189  0.00  0.00    +0.000 C 
BRANCH  16  17
ATOM     17  C11 UNL     1     154.428 160.403 166.094  0.00  0.00    +0.000 A 
ATOM     18  C12 UNL     1     154.713 160.804 167.382  0.00  0.00    +0.000 A 
ATOM     19  C13 UNL     1     153.715 161.301 168.213  0.00  0.00    +0.000 A 
ATOM     20  C14 UNL     1     152.414 161.411 167.787  0.00  0.00    +0.000 A 
ATOM     21  O3  UNL     1     151.222 161.863 168.384  0.00  0.00    +0.000 OA
ATOM     22  C15 UNL     1     150.355 162.228 167.297  0.00  0.00    +0.000 C 
ATOM     23  O4  UNL     1     150.755 161.233 166.344  0.00  0.00    +0.000 OA
ATOM     24  C16 UNL     1     152.122 161.011 166.498  0.00  0.00    +0.000 A 
ATOM     25  C17 UNL     1     153.123 160.514 165.666  0.00  0.00    +0.000 A 
ENDBRANCH  16  17
ENDBRANCH   3  16
TORSDOF 5
ENDMDL
