MODEL 1
REMARK VINA RESULT:      -6.6      0.000      0.000
REMARK  Name = ./3D_structures\o60_MMV1578572_3D.pdb
REMARK  9 active torsions:
REMARK  status: ('A' for Active; 'I' for Inactive)
REMARK    1  A    between atoms: C1_1  and  O1_2
REMARK    2  A    between atoms: O1_2  and  C2_3
REMARK    3  A    between atoms: C4_5  and  N1_6
REMARK    4  A    between atoms: C5_7  and  C6_9
REMARK    5  A    between atoms: C6_9  and  N2_10
REMARK    6  A    between atoms: C8_14  and  C10_17
REMARK    7  A    between atoms: C8_14  and  C16_23
REMARK    8  A    between atoms: C23_30  and  O5_31
REMARK    9  A    between atoms: O5_31  and  C24_32
REMARK                            x       y       z     vdW  Elec       q    Type
REMARK                         _______ _______ _______ _____ _____    ______ ____
ROOT
ATOM      1  N2  UNL     1     154.501 159.559 167.137  0.00  0.00    +0.000 N 
ATOM      2  C7  UNL     1     154.596 158.154 167.314  0.00  0.00    +0.000 C 
ATOM      3  O3  UNL     1     154.705 157.266 166.419  0.00  0.00    +0.000 OA
ATOM      4  N3  UNL     1     154.548 157.844 168.720  0.00  0.00    +0.000 N 
ATOM      5  C8  UNL     1     154.084 159.020 169.397  0.00  0.00    +0.000 C 
ATOM      6  C9  UNL     1     154.396 160.109 168.435  0.00  0.00    +0.000 C 
ATOM      7  O4  UNL     1     154.554 161.335 168.672  0.00  0.00    +0.000 OA
ATOM      8  H8  UNL     1     154.794 156.951 169.177  0.00  0.00    +0.000 HD
ENDROOT
BRANCH   5   9
ATOM      9  C10 UNL     1     152.595 158.958 169.469  0.00  0.00    +0.000 A 
ATOM     10  C11 UNL     1     151.818 160.006 169.043  0.00  0.00    +0.000 A 
ATOM     11  C12 UNL     1     150.453 159.920 169.124  0.00  0.00    +0.000 A 
ATOM     12  C13 UNL     1     149.873 158.793 169.628  0.00  0.00    +0.000 A 
ATOM     13  C14 UNL     1     150.635 157.707 170.071  0.00  0.00    +0.000 A 
ATOM     14  C15 UNL     1     152.012 157.829 169.973  0.00  0.00    +0.000 A 
ENDBRANCH   5   9
BRANCH   5  15
ATOM     15  C16 UNL     1     154.677 159.254 170.721  0.00  0.00    +0.000 A 
ATOM     16  C17 UNL     1     155.891 158.731 171.098  0.00  0.00    +0.000 A 
ATOM     17  C18 UNL     1     156.389 158.999 172.381  0.00  0.00    +0.000 A 
ATOM     18  C19 UNL     1     155.710 159.772 173.293  0.00  0.00    +0.000 A 
ATOM     19  C20 UNL     1     154.494 160.290 172.901  0.00  0.00    +0.000 A 
ATOM     20  C21 UNL     1     154.007 160.028 171.647  0.00  0.00    +0.000 A 
ENDBRANCH   5  15
BRANCH   1  21
ATOM     21  C6  UNL     1     154.517 160.219 165.846  0.00  0.00    +0.000 C 
BRANCH  21  23
ATOM     22  N1  UNL     1     153.397 162.385 166.232  0.00  0.00    +0.000 N 
ATOM     23  C5  UNL     1     153.329 161.110 165.663  0.00  0.00    +0.000 C 
ATOM     24  O2  UNL     1     152.367 160.690 165.033  0.00  0.00    +0.000 OA
ATOM     25  H5  UNL     1     154.287 162.669 166.769  0.00  0.00    +0.000 HD
BRANCH  22  28
ATOM     26  C2  UNL     1     150.145 164.193 166.628  0.00  0.00    +0.000 A 
ATOM     27  C3  UNL     1     151.143 163.206 166.717  0.00  0.00    +0.000 A 
ATOM     28  C4  UNL     1     152.375 163.343 166.151  0.00  0.00    +0.000 A 
ATOM     29  C22 UNL     1     152.639 164.521 165.457  0.00  0.00    +0.000 A 
ATOM     30  C23 UNL     1     151.680 165.492 165.361  0.00  0.00    +0.000 A 
ATOM     31  C25 UNL     1     150.434 165.333 165.943  0.00  0.00    +0.000 A 
BRANCH  26  33
ATOM     32  C1  UNL     1     148.535 162.724 167.630  0.00  0.00    +0.000 C 
ATOM     33  O1  UNL     1     148.907 164.012 167.219  0.00  0.00    +0.000 OA
ENDBRANCH  26  33
BRANCH  30  34
ATOM     34  O5  UNL     1     151.945 166.659 164.672  0.00  0.00    +0.000 OA
ATOM     35  C24 UNL     1     153.007 167.478 165.077  0.00  0.00    +0.000 C 
ENDBRANCH  30  34
ENDBRANCH  22  28
ENDBRANCH  21  23
ENDBRANCH   1  21
TORSDOF 7
ENDMDL
MODEL 2
REMARK VINA RESULT:      -6.5      1.784      2.556
REMARK  Name = ./3D_structures\o60_MMV1578572_3D.pdb
REMARK  9 active torsions:
REMARK  status: ('A' for Active; 'I' for Inactive)
REMARK    1  A    between atoms: C1_1  and  O1_2
REMARK    2  A    between atoms: O1_2  and  C2_3
REMARK    3  A    between atoms: C4_5  and  N1_6
REMARK    4  A    between atoms: C5_7  and  C6_9
REMARK    5  A    between atoms: C6_9  and  N2_10
REMARK    6  A    between atoms: C8_14  and  C10_17
REMARK    7  A    between atoms: C8_14  and  C16_23
REMARK    8  A    between atoms: C23_30  and  O5_31
REMARK    9  A    between atoms: O5_31  and  C24_32
REMARK                            x       y       z     vdW  Elec       q    Type
REMARK                         _______ _______ _______ _____ _____    ______ ____
ROOT
ATOM      1  N2  UNL     1     153.739 160.931 167.139  0.00  0.00    +0.000 N 
ATOM      2  C7  UNL     1     153.890 159.606 166.655  0.00  0.00    +0.000 C 
ATOM      3  O3  UNL     1     153.654 159.176 165.489  0.00  0.00    +0.000 OA
ATOM      4  N3  UNL     1     154.373 158.759 167.716  0.00  0.00    +0.000 N 
ATOM      5  C8  UNL     1     154.199 159.481 168.944  0.00  0.00    +0.000 C 
ATOM      6  C9  UNL     1     154.130 160.897 168.497  0.00  0.00    +0.000 C 
ATOM      7  O4  UNL     1     154.369 161.936 169.166  0.00  0.00    +0.000 OA
ATOM      8  H8  UNL     1     154.770 157.810 167.634  0.00  0.00    +0.000 HD
ENDROOT
BRANCH   5   9
ATOM      9  C10 UNL     1     152.846 159.160 169.484  0.00  0.00    +0.000 A 
ATOM     10  C11 UNL     1     151.935 160.150 169.754  0.00  0.00    +0.000 A 
ATOM     11  C12 UNL     1     150.701 159.824 170.252  0.00  0.00    +0.000 A 
ATOM     12  C13 UNL     1     150.384 158.517 170.477  0.00  0.00    +0.000 A 
ATOM     13  C14 UNL     1     151.289 157.484 170.213  0.00  0.00    +0.000 A 
ATOM     14  C15 UNL     1     152.526 157.850 169.710  0.00  0.00    +0.000 A 
ENDBRANCH   5   9
BRANCH   5  15
ATOM     15  C16 UNL     1     155.246 159.260 169.951  0.00  0.00    +0.000 A 
ATOM     16  C17 UNL     1     155.063 159.524 171.288  0.00  0.00    +0.000 A 
ATOM     17  C18 UNL     1     156.113 159.288 172.187  0.00  0.00    +0.000 A 
ATOM     18  C19 UNL     1     157.334 158.797 171.790  0.00  0.00    +0.000 A 
ATOM     19  C20 UNL     1     157.503 158.538 170.446  0.00  0.00    +0.000 A 
ATOM     20  C21 UNL     1     156.477 158.768 169.567  0.00  0.00    +0.000 A 
ENDBRANCH   5  15
BRANCH   1  21
ATOM     21  C6  UNL     1     153.271 162.043 166.335  0.00  0.00    +0.000 C 
BRANCH  21  23
ATOM     22  N1  UNL     1     151.618 163.681 167.157  0.00  0.00    +0.000 N 
ATOM     23  C5  UNL     1     151.852 162.399 166.651  0.00  0.00    +0.000 C 
ATOM     24  O2  UNL     1     150.977 161.566 166.456  0.00  0.00    +0.000 OA
ATOM     25  H5  UNL     1     152.452 164.348 167.295  0.00  0.00    +0.000 HD
BRANCH  22  28
ATOM     26  C2  UNL     1     148.381 164.316 168.924  0.00  0.00    +0.000 A 
ATOM     27  C3  UNL     1     149.645 163.790 168.601  0.00  0.00    +0.000 A 
ATOM     28  C4  UNL     1     150.350 164.175 167.501  0.00  0.00    +0.000 A 
ATOM     29  C22 UNL     1     149.776 165.134 166.670  0.00  0.00    +0.000 A 
ATOM     30  C23 UNL     1     148.548 165.658 166.969  0.00  0.00    +0.000 A 
ATOM     31  C25 UNL     1     147.847 165.252 168.092  0.00  0.00    +0.000 A 
BRANCH  26  33
ATOM     32  C1  UNL     1     146.333 164.191 170.167  0.00  0.00    +0.000 C 
ATOM     33  O1  UNL     1     147.699 163.896 170.052  0.00  0.00    +0.000 OA
ENDBRANCH  26  33
BRANCH  30  34
ATOM     34  O5  UNL     1     147.983 166.609 166.143  0.00  0.00    +0.000 OA
ATOM     35  C24 UNL     1     146.612 166.552 165.857  0.00  0.00    +0.000 C 
ENDBRANCH  30  34
ENDBRANCH  22  28
ENDBRANCH  21  23
ENDBRANCH   1  21
TORSDOF 7
ENDMDL
MODEL 3
REMARK VINA RESULT:      -6.4      1.755      3.196
REMARK  Name = ./3D_structures\o60_MMV1578572_3D.pdb
REMARK  9 active torsions:
REMARK  status: ('A' for Active; 'I' for Inactive)
REMARK    1  A    between atoms: C1_1  and  O1_2
REMARK    2  A    between atoms: O1_2  and  C2_3
REMARK    3  A    between atoms: C4_5  and  N1_6
REMARK    4  A    between atoms: C5_7  and  C6_9
REMARK    5  A    between atoms: C6_9  and  N2_10
REMARK    6  A    between atoms: C8_14  and  C10_17
REMARK    7  A    between atoms: C8_14  and  C16_23
REMARK    8  A    between atoms: C23_30  and  O5_31
REMARK    9  A    between atoms: O5_31  and  C24_32
REMARK                            x       y       z     vdW  Elec       q    Type
REMARK                         _______ _______ _______ _____ _____    ______ ____
ROOT
ATOM      1  N2  UNL     1     153.880 160.973 167.124  0.00  0.00    +0.000 N 
ATOM      2  C7  UNL     1     153.960 159.646 166.628  0.00  0.00    +0.000 C 
ATOM      3  O3  UNL     1     153.681 159.237 165.464  0.00  0.00    +0.000 OA
ATOM      4  N3  UNL     1     154.426 158.771 167.673  0.00  0.00    +0.000 N 
ATOM      5  C8  UNL     1     154.309 159.490 168.909  0.00  0.00    +0.000 C 
ATOM      6  C9  UNL     1     154.296 160.911 168.473  0.00  0.00    +0.000 C 
ATOM      7  O4  UNL     1     154.595 161.933 169.145  0.00  0.00    +0.000 OA
ATOM      8  H8  UNL     1     154.777 157.805 167.575  0.00  0.00    +0.000 HD
ENDROOT
BRANCH   5   9
ATOM      9  C10 UNL     1     152.955 159.226 169.475  0.00  0.00    +0.000 A 
ATOM     10  C11 UNL     1     152.493 157.945 169.645  0.00  0.00    +0.000 A 
ATOM     11  C12 UNL     1     151.242 157.735 170.166  0.00  0.00    +0.000 A 
ATOM     12  C13 UNL     1     150.464 158.800 170.512  0.00  0.00    +0.000 A 
ATOM     13  C14 UNL     1     150.905 160.117 170.352  0.00  0.00    +0.000 A 
ATOM     14  C15 UNL     1     152.173 160.292 169.824  0.00  0.00    +0.000 A 
ENDBRANCH   5   9
BRANCH   5  15
ATOM     15  C16 UNL     1     155.366 159.214 169.893  0.00  0.00    +0.000 A 
ATOM     16  C17 UNL     1     155.192 159.395 171.244  0.00  0.00    +0.000 A 
ATOM     17  C18 UNL     1     156.251 159.111 172.119  0.00  0.00    +0.000 A 
ATOM     18  C19 UNL     1     157.471 158.651 171.683  0.00  0.00    +0.000 A 
ATOM     19  C20 UNL     1     157.630 158.474 170.325  0.00  0.00    +0.000 A 
ATOM     20  C21 UNL     1     156.596 158.752 169.470  0.00  0.00    +0.000 A 
ENDBRANCH   5  15
BRANCH   1  21
ATOM     21  C6  UNL     1     153.446 162.112 166.337  0.00  0.00    +0.000 C 
BRANCH  21  23
ATOM     22  N1  UNL     1     151.711 163.690 167.106  0.00  0.00    +0.000 N 
ATOM     23  C5  UNL     1     152.003 162.432 166.570  0.00  0.00    +0.000 C 
ATOM     24  O2  UNL     1     151.159 161.592 166.288  0.00  0.00    +0.000 OA
ATOM     25  H5  UNL     1     152.521 164.365 167.323  0.00  0.00    +0.000 HD
BRANCH  22  28
ATOM     26  C2  UNL     1     148.477 165.569 166.987  0.00  0.00    +0.000 A 
ATOM     27  C3  UNL     1     149.785 165.141 166.693  0.00  0.00    +0.000 A 
ATOM     28  C4  UNL     1     150.414 164.149 167.382  0.00  0.00    +0.000 A 
ATOM     29  C22 UNL     1     149.715 163.544 168.423  0.00  0.00    +0.000 A 
ATOM     30  C23 UNL     1     148.443 163.946 168.724  0.00  0.00    +0.000 A 
ATOM     31  C25 UNL     1     147.820 164.957 168.010  0.00  0.00    +0.000 A 
BRANCH  26  33
ATOM     32  C1  UNL     1     146.521 166.456 165.919  0.00  0.00    +0.000 C 
ATOM     33  O1  UNL     1     147.876 166.580 166.260  0.00  0.00    +0.000 OA
ENDBRANCH  26  33
BRANCH  30  34
ATOM     34  O5  UNL     1     147.753 163.343 169.757  0.00  0.00    +0.000 OA
ATOM     35  C24 UNL     1     146.370 163.533 169.871  0.00  0.00    +0.000 C 
ENDBRANCH  30  34
ENDBRANCH  22  28
ENDBRANCH  21  23
ENDBRANCH   1  21
TORSDOF 7
ENDMDL
MODEL 4
REMARK VINA RESULT:      -6.3      4.081      7.010
REMARK  Name = ./3D_structures\o60_MMV1578572_3D.pdb
REMARK  9 active torsions:
REMARK  status: ('A' for Active; 'I' for Inactive)
REMARK    1  A    between atoms: C1_1  and  O1_2
REMARK    2  A    between atoms: O1_2  and  C2_3
REMARK    3  A    between atoms: C4_5  and  N1_6
REMARK    4  A    between atoms: C5_7  and  C6_9
REMARK    5  A    between atoms: C6_9  and  N2_10
REMARK    6  A    between atoms: C8_14  and  C10_17
REMARK    7  A    between atoms: C8_14  and  C16_23
REMARK    8  A    between atoms: C23_30  and  O5_31
REMARK    9  A    between atoms: O5_31  and  C24_32
REMARK                            x       y       z     vdW  Elec       q    Type
REMARK                         _______ _______ _______ _____ _____    ______ ____
ROOT
ATOM      1  N2  UNL     1     158.095 158.568 168.936  0.00  0.00    +0.000 N 
ATOM      2  C7  UNL     1     158.788 159.463 168.081  0.00  0.00    +0.000 C 
ATOM      3  O3  UNL     1     159.394 160.527 168.400  0.00  0.00    +0.000 OA
ATOM      4  N3  UNL     1     158.712 158.984 166.723  0.00  0.00    +0.000 N 
ATOM      5  C8  UNL     1     157.689 157.980 166.687  0.00  0.00    +0.000 C 
ATOM      6  C9  UNL     1     157.595 157.541 168.104  0.00  0.00    +0.000 C 
ATOM      7  O4  UNL     1     157.154 156.451 168.553  0.00  0.00    +0.000 OA
ATOM      8  H8  UNL     1     159.274 159.293 165.914  0.00  0.00    +0.000 HD
ENDROOT
BRANCH   5   9
ATOM      9  C10 UNL     1     156.391 158.649 166.382  0.00  0.00    +0.000 A 
ATOM     10  C11 UNL     1     155.225 158.246 166.984  0.00  0.00    +0.000 A 
ATOM     11  C12 UNL     1     154.047 158.879 166.682  0.00  0.00    +0.000 A 
ATOM     12  C13 UNL     1     154.041 159.906 165.785  0.00  0.00    +0.000 A 
ATOM     13  C14 UNL     1     155.210 160.342 165.154  0.00  0.00    +0.000 A 
ATOM     14  C15 UNL     1     156.382 159.680 165.484  0.00  0.00    +0.000 A 
ENDBRANCH   5   9
BRANCH   5  15
ATOM     15  C16 UNL     1     157.945 156.861 165.769  0.00  0.00    +0.000 A 
ATOM     16  C17 UNL     1     156.943 156.073 165.255  0.00  0.00    +0.000 A 
ATOM     17  C18 UNL     1     157.270 155.023 164.385  0.00  0.00    +0.000 A 
ATOM     18  C19 UNL     1     158.563 154.741 164.015  0.00  0.00    +0.000 A 
ATOM     19  C20 UNL     1     159.558 155.540 164.538  0.00  0.00    +0.000 A 
ATOM     20  C21 UNL     1     159.239 156.566 165.389  0.00  0.00    +0.000 A 
ENDBRANCH   5  15
BRANCH   1  21
ATOM     21  C6  UNL     1     157.971 158.745 170.370  0.00  0.00    +0.000 C 
BRANCH  21  23
ATOM     22  N1  UNL     1     155.640 159.552 170.441  0.00  0.00    +0.000 N 
ATOM     23  C5  UNL     1     156.558 158.573 170.832  0.00  0.00    +0.000 C 
ATOM     24  O2  UNL     1     156.275 157.602 171.520  0.00  0.00    +0.000 OA
ATOM     25  H5  UNL     1     155.981 160.374 169.833  0.00  0.00    +0.000 HD
BRANCH  22  28
ATOM     26  C2  UNL     1     151.958 158.886 170.461  0.00  0.00    +0.000 A 
ATOM     27  C3  UNL     1     153.312 158.888 170.081  0.00  0.00    +0.000 A 
ATOM     28  C4  UNL     1     154.279 159.541 170.784  0.00  0.00    +0.000 A 
ATOM     29  C22 UNL     1     153.889 160.235 171.926  0.00  0.00    +0.000 A 
ATOM     30  C23 UNL     1     152.576 160.244 172.311  0.00  0.00    +0.000 A 
ATOM     31  C25 UNL     1     151.608 159.572 171.583  0.00  0.00    +0.000 A 
BRANCH  26  33
ATOM     32  C1  UNL     1     149.827 157.788 170.348  0.00  0.00    +0.000 C 
ATOM     33  O1  UNL     1     151.009 158.207 169.718  0.00  0.00    +0.000 OA
ENDBRANCH  26  33
BRANCH  30  34
ATOM     34  O5  UNL     1     152.192 160.933 173.445  0.00  0.00    +0.000 OA
ATOM     35  C24 UNL     1     152.132 162.332 173.419  0.00  0.00    +0.000 C 
ENDBRANCH  30  34
ENDBRANCH  22  28
ENDBRANCH  21  23
ENDBRANCH   1  21
TORSDOF 7
ENDMDL
MODEL 5
REMARK VINA RESULT:      -6.3      3.055      6.307
REMARK  Name = ./3D_structures\o60_MMV1578572_3D.pdb
REMARK  9 active torsions:
REMARK  status: ('A' for Active; 'I' for Inactive)
REMARK    1  A    between atoms: C1_1  and  O1_2
REMARK    2  A    between atoms: O1_2  and  C2_3
REMARK    3  A    between atoms: C4_5  and  N1_6
REMARK    4  A    between atoms: C5_7  and  C6_9
REMARK    5  A    between atoms: C6_9  and  N2_10
REMARK    6  A    between atoms: C8_14  and  C10_17
REMARK    7  A    between atoms: C8_14  and  C16_23
REMARK    8  A    between atoms: C23_30  and  O5_31
REMARK    9  A    between atoms: O5_31  and  C24_32
REMARK                            x       y       z     vdW  Elec       q    Type
REMARK                         _______ _______ _______ _____ _____    ______ ____
ROOT
ATOM      1  N2  UNL     1     156.940 158.495 169.514  0.00  0.00    +0.000 N 
ATOM      2  C7  UNL     1     157.867 159.487 169.102  0.00  0.00    +0.000 C 
ATOM      3  O3  UNL     1     158.281 160.483 169.763  0.00  0.00    +0.000 OA
ATOM      4  N3  UNL     1     158.305 159.204 167.759  0.00  0.00    +0.000 N 
ATOM      5  C8  UNL     1     157.398 158.236 167.214  0.00  0.00    +0.000 C 
ATOM      6  C9  UNL     1     156.810 157.605 168.424  0.00  0.00    +0.000 C 
ATOM      7  O4  UNL     1     156.272 156.471 168.527  0.00  0.00    +0.000 OA
ATOM      8  H8  UNL     1     159.113 159.612 167.261  0.00  0.00    +0.000 HD
ENDROOT
BRANCH   5   9
ATOM      9  C10 UNL     1     156.279 158.967 166.553  0.00  0.00    +0.000 A 
ATOM     10  C11 UNL     1     154.990 158.499 166.614  0.00  0.00    +0.000 A 
ATOM     11  C12 UNL     1     153.983 159.192 165.994  0.00  0.00    +0.000 A 
ATOM     12  C13 UNL     1     154.267 160.343 165.320  0.00  0.00    +0.000 A 
ATOM     13  C14 UNL     1     155.569 160.847 165.238  0.00  0.00    +0.000 A 
ATOM     14  C15 UNL     1     156.561 160.121 165.877  0.00  0.00    +0.000 A 
ENDBRANCH   5   9
BRANCH   5  15
ATOM     15  C16 UNL     1     158.007 157.251 166.308  0.00  0.00    +0.000 A 
ATOM     16  C17 UNL     1     157.279 156.278 165.666  0.00  0.00    +0.000 A 
ATOM     17  C18 UNL     1     157.935 155.374 164.817  0.00  0.00    +0.000 A 
ATOM     18  C19 UNL     1     159.290 155.417 164.592  0.00  0.00    +0.000 A 
ATOM     19  C20 UNL     1     160.007 156.400 165.242  0.00  0.00    +0.000 A 
ATOM     20  C21 UNL     1     159.367 157.283 166.072  0.00  0.00    +0.000 A 
ENDBRANCH   5  15
BRANCH   1  21
ATOM     21  C6  UNL     1     156.298 158.472 170.815  0.00  0.00    +0.000 C 
BRANCH  21  23
ATOM     22  N1  UNL     1     153.998 158.419 169.920  0.00  0.00    +0.000 N 
ATOM     23  C5  UNL     1     154.918 159.048 170.764  0.00  0.00    +0.000 C 
ATOM     24  O2  UNL     1     154.661 160.028 171.451  0.00  0.00    +0.000 OA
ATOM     25  H5  UNL     1     154.314 157.560 169.352  0.00  0.00    +0.000 HD
BRANCH  22  28
ATOM     26  C2  UNL     1     150.269 158.639 170.136  0.00  0.00    +0.000 A 
ATOM     27  C3  UNL     1     151.592 158.194 170.307  0.00  0.00    +0.000 A 
ATOM     28  C4  UNL     1     152.665 158.828 169.758  0.00  0.00    +0.000 A 
ATOM     29  C22 UNL     1     152.421 159.967 168.995  0.00  0.00    +0.000 A 
ATOM     30  C23 UNL     1     151.141 160.415 168.817  0.00  0.00    +0.000 A 
ATOM     31  C25 UNL     1     150.063 159.756 169.385  0.00  0.00    +0.000 A 
BRANCH  26  33
ATOM     32  C1  UNL     1     149.466 157.053 171.747  0.00  0.00    +0.000 C 
ATOM     33  O1  UNL     1     149.208 157.965 170.712  0.00  0.00    +0.000 OA
ENDBRANCH  26  33
BRANCH  30  34
ATOM     34  O5  UNL     1     150.902 161.545 168.060  0.00  0.00    +0.000 OA
ATOM     35  C24 UNL     1     150.839 161.444 166.664  0.00  0.00    +0.000 C 
ENDBRANCH  30  34
ENDBRANCH  22  28
ENDBRANCH  21  23
ENDBRANCH   1  21
TORSDOF 7
ENDMDL
MODEL 6
REMARK VINA RESULT:      -6.3      2.932      4.722
REMARK  Name = ./3D_structures\o60_MMV1578572_3D.pdb
REMARK  9 active torsions:
REMARK  status: ('A' for Active; 'I' for Inactive)
REMARK    1  A    between atoms: C1_1  and  O1_2
REMARK    2  A    between atoms: O1_2  and  C2_3
REMARK    3  A    between atoms: C4_5  and  N1_6
REMARK    4  A    between atoms: C5_7  and  C6_9
REMARK    5  A    between atoms: C6_9  and  N2_10
REMARK    6  A    between atoms: C8_14  and  C10_17
REMARK    7  A    between atoms: C8_14  and  C16_23
REMARK    8  A    between atoms: C23_30  and  O5_31
REMARK    9  A    between atoms: O5_31  and  C24_32
REMARK                            x       y       z     vdW  Elec       q    Type
REMARK                         _______ _______ _______ _____ _____    ______ ____
ROOT
ATOM      1  N2  UNL     1     153.050 158.443 169.820  0.00  0.00    +0.000 N 
ATOM      2  C7  UNL     1     153.442 159.620 170.508  0.00  0.00    +0.000 C 
ATOM      3  O3  UNL     1     152.786 160.266 171.376  0.00  0.00    +0.000 OA
ATOM      4  N3  UNL     1     154.759 160.013 170.074  0.00  0.00    +0.000 N 
ATOM      5  C8  UNL     1     155.044 159.280 168.874  0.00  0.00    +0.000 C 
ATOM      6  C9  UNL     1     154.125 158.115 168.964  0.00  0.00    +0.000 C 
ATOM      7  O4  UNL     1     154.231 156.996 168.397  0.00  0.00    +0.000 OA
ATOM      8  H8  UNL     1     155.394 160.693 170.523  0.00  0.00    +0.000 HD
ENDROOT
BRANCH   5   9
ATOM      9  C10 UNL     1     154.566 160.085 167.713  0.00  0.00    +0.000 A 
ATOM     10  C11 UNL     1     153.733 159.543 166.767  0.00  0.00    +0.000 A 
ATOM     11  C12 UNL     1     153.312 160.308 165.710  0.00  0.00    +0.000 A 
ATOM     12  C13 UNL     1     153.724 161.604 165.604  0.00  0.00    +0.000 A 
ATOM     13  C14 UNL     1     154.571 162.187 166.551  0.00  0.00    +0.000 A 
ATOM     14  C15 UNL     1     154.976 161.385 167.606  0.00  0.00    +0.000 A 
ENDBRANCH   5   9
BRANCH   5  15
ATOM     15  C16 UNL     1     156.447 158.877 168.707  0.00  0.00    +0.000 A 
ATOM     16  C17 UNL     1     156.995 158.569 167.484  0.00  0.00    +0.000 A 
ATOM     17  C18 UNL     1     158.343 158.191 167.408  0.00  0.00    +0.000 A 
ATOM     18  C19 UNL     1     159.156 158.115 168.515  0.00  0.00    +0.000 A 
ATOM     19  C20 UNL     1     158.593 158.427 169.734  0.00  0.00    +0.000 A 
ATOM     20  C21 UNL     1     157.275 158.796 169.809  0.00  0.00    +0.000 A 
ENDBRANCH   5  15
BRANCH   1  21
ATOM     21  C6  UNL     1     151.779 157.772 170.014  0.00  0.00    +0.000 C 
BRANCH  21  23
ATOM     22  N1  UNL     1     150.807 159.815 169.027  0.00  0.00    +0.000 N 
ATOM     23  C5  UNL     1     150.625 158.714 169.868  0.00  0.00    +0.000 C 
ATOM     24  O2  UNL     1     149.592 158.482 170.483  0.00  0.00    +0.000 OA
ATOM     25  H5  UNL     1     151.753 159.938 168.526  0.00  0.00    +0.000 HD
BRANCH  22  28
ATOM     26  C2  UNL     1     147.803 161.619 167.712  0.00  0.00    +0.000 A 
ATOM     27  C3  UNL     1     148.775 160.625 167.929  0.00  0.00    +0.000 A 
ATOM     28  C4  UNL     1     149.828 160.790 168.777  0.00  0.00    +0.000 A 
ATOM     29  C22 UNL     1     149.931 162.005 169.449  0.00  0.00    +0.000 A 
ATOM     30  C23 UNL     1     148.995 162.983 169.251  0.00  0.00    +0.000 A 
ATOM     31  C25 UNL     1     147.931 162.795 168.384  0.00  0.00    +0.000 A 
BRANCH  26  33
ATOM     32  C1  UNL     1     145.595 162.196 166.972  0.00  0.00    +0.000 C 
ATOM     33  O1  UNL     1     146.749 161.408 166.841  0.00  0.00    +0.000 OA
ENDBRANCH  26  33
BRANCH  30  34
ATOM     34  O5  UNL     1     149.100 164.186 169.920  0.00  0.00    +0.000 OA
ATOM     35  C24 UNL     1     150.293 164.512 170.579  0.00  0.00    +0.000 C 
ENDBRANCH  30  34
ENDBRANCH  22  28
ENDBRANCH  21  23
ENDBRANCH   1  21
TORSDOF 7
ENDMDL
MODEL 7
REMARK VINA RESULT:      -6.2      0.539      2.195
REMARK  Name = ./3D_structures\o60_MMV1578572_3D.pdb
REMARK  9 active torsions:
REMARK  status: ('A' for Active; 'I' for Inactive)
REMARK    1  A    between atoms: C1_1  and  O1_2
REMARK    2  A    between atoms: O1_2  and  C2_3
REMARK    3  A    between atoms: C4_5  and  N1_6
REMARK    4  A    between atoms: C5_7  and  C6_9
REMARK    5  A    between atoms: C6_9  and  N2_10
REMARK    6  A    between atoms: C8_14  and  C10_17
REMARK    7  A    between atoms: C8_14  and  C16_23
REMARK    8  A    between atoms: C23_30  and  O5_31
REMARK    9  A    between atoms: O5_31  and  C24_32
REMARK                            x       y       z     vdW  Elec       q    Type
REMARK                         _______ _______ _______ _____ _____    ______ ____
ROOT
ATOM      1  N2  UNL     1     154.535 159.538 167.528  0.00  0.00    +0.000 N 
ATOM      2  C7  UNL     1     154.626 158.144 167.780  0.00  0.00    +0.000 C 
ATOM      3  O3  UNL     1     154.812 157.216 166.940  0.00  0.00    +0.000 OA
ATOM      4  N3  UNL     1     154.474 157.901 169.192  0.00  0.00    +0.000 N 
ATOM      5  C8  UNL     1     153.949 159.103 169.773  0.00  0.00    +0.000 C 
ATOM      6  C9  UNL     1     154.326 160.148 168.786  0.00  0.00    +0.000 C 
ATOM      7  O4  UNL     1     154.455 161.386 168.975  0.00  0.00    +0.000 OA
ATOM      8  H8  UNL     1     154.691 157.033 169.708  0.00  0.00    +0.000 HD
ENDROOT
BRANCH   5   9
ATOM      9  C10 UNL     1     152.460 159.026 169.734  0.00  0.00    +0.000 A 
ATOM     10  C11 UNL     1     151.704 160.095 169.323  0.00  0.00    +0.000 A 
ATOM     11  C12 UNL     1     150.337 159.996 169.301  0.00  0.00    +0.000 A 
ATOM     12  C13 UNL     1     149.736 158.834 169.687  0.00  0.00    +0.000 A 
ATOM     13  C14 UNL     1     150.476 157.726 170.111  0.00  0.00    +0.000 A 
ATOM     14  C15 UNL     1     151.855 157.862 170.120  0.00  0.00    +0.000 A 
ENDBRANCH   5   9
BRANCH   5  15
ATOM     15  C16 UNL     1     154.437 159.406 171.126  0.00  0.00    +0.000 A 
ATOM     16  C17 UNL     1     155.694 159.060 171.561  0.00  0.00    +0.000 A 
ATOM     17  C18 UNL     1     156.084 159.384 172.868  0.00  0.00    +0.000 A 
ATOM     18  C19 UNL     1     155.258 160.042 173.748  0.00  0.00    +0.000 A 
ATOM     19  C20 UNL     1     154.000 160.383 173.297  0.00  0.00    +0.000 A 
ATOM     20  C21 UNL     1     153.618 160.067 172.020  0.00  0.00    +0.000 A 
ENDBRANCH   5  15
BRANCH   1  21
ATOM     21  C6  UNL     1     154.645 160.136 166.212  0.00  0.00    +0.000 C 
BRANCH  21  23
ATOM     22  N1  UNL     1     153.388 162.235 166.544  0.00  0.00    +0.000 N 
ATOM     23  C5  UNL     1     153.465 161.000 165.894  0.00  0.00    +0.000 C 
ATOM     24  O2  UNL     1     152.634 160.593 165.092  0.00  0.00    +0.000 OA
ATOM     25  H5  UNL     1     154.168 162.510 167.234  0.00  0.00    +0.000 HD
BRANCH  22  28
ATOM     26  C2  UNL     1     151.409 165.221 165.464  0.00  0.00    +0.000 A 
ATOM     27  C3  UNL     1     152.472 164.318 165.644  0.00  0.00    +0.000 A 
ATOM     28  C4  UNL     1     152.353 163.164 166.358  0.00  0.00    +0.000 A 
ATOM     29  C22 UNL     1     151.115 162.884 166.930  0.00  0.00    +0.000 A 
ATOM     30  C23 UNL     1     150.069 163.751 166.766  0.00  0.00    +0.000 A 
ATOM     31  C25 UNL     1     150.211 164.920 166.036  0.00  0.00    +0.000 A 
BRANCH  26  33
ATOM     32  C1  UNL     1     152.759 167.118 164.883  0.00  0.00    +0.000 C 
ATOM     33  O1  UNL     1     151.574 166.382 164.730  0.00  0.00    +0.000 OA
ENDBRANCH  26  33
BRANCH  30  34
ATOM     34  O5  UNL     1     148.843 163.471 167.335  0.00  0.00    +0.000 OA
ATOM     35  C24 UNL     1     147.866 164.472 167.405  0.00  0.00    +0.000 C 
ENDBRANCH  30  34
ENDBRANCH  22  28
ENDBRANCH  21  23
ENDBRANCH   1  21
TORSDOF 7
ENDMDL
MODEL 8
REMARK VINA RESULT:      -6.2      1.969      2.981
REMARK  Name = ./3D_structures\o60_MMV1578572_3D.pdb
REMARK  9 active torsions:
REMARK  status: ('A' for Active; 'I' for Inactive)
REMARK    1  A    between atoms: C1_1  and  O1_2
REMARK    2  A    between atoms: O1_2  and  C2_3
REMARK    3  A    between atoms: C4_5  and  N1_6
REMARK    4  A    between atoms: C5_7  and  C6_9
REMARK    5  A    between atoms: C6_9  and  N2_10
REMARK    6  A    between atoms: C8_14  and  C10_17
REMARK    7  A    between atoms: C8_14  and  C16_23
REMARK    8  A    between atoms: C23_30  and  O5_31
REMARK    9  A    between atoms: O5_31  and  C24_32
REMARK                            x       y       z     vdW  Elec       q    Type
REMARK                         _______ _______ _______ _____ _____    ______ ____
ROOT
ATOM      1  N2  UNL     1     153.878 161.164 167.312  0.00  0.00    +0.000 N 
ATOM      2  C7  UNL     1     153.921 159.887 166.696  0.00  0.00    +0.000 C 
ATOM      3  O3  UNL     1     153.570 159.582 165.519  0.00  0.00    +0.000 OA
ATOM      4  N3  UNL     1     154.447 158.923 167.629  0.00  0.00    +0.000 N 
ATOM      5  C8  UNL     1     154.410 159.529 168.928  0.00  0.00    +0.000 C 
ATOM      6  C9  UNL     1     154.376 160.983 168.621  0.00  0.00    +0.000 C 
ATOM      7  O4  UNL     1     154.720 161.942 169.361  0.00  0.00    +0.000 OA
ATOM      8  H8  UNL     1     154.787 157.969 167.424  0.00  0.00    +0.000 HD
ENDROOT
BRANCH   5   9
ATOM      9  C10 UNL     1     153.091 159.215 169.550  0.00  0.00    +0.000 A 
ATOM     10  C11 UNL     1     152.295 160.206 170.068  0.00  0.00    +0.000 A 
ATOM     11  C12 UNL     1     151.089 159.886 170.635  0.00  0.00    +0.000 A 
ATOM     12  C13 UNL     1     150.687 158.584 170.683  0.00  0.00    +0.000 A 
ATOM     13  C14 UNL     1     151.473 157.550 170.166  0.00  0.00    +0.000 A 
ATOM     14  C15 UNL     1     152.685 157.910 169.599  0.00  0.00    +0.000 A 
ENDBRANCH   5   9
BRANCH   5  15
ATOM     15  C16 UNL     1     155.523 159.168 169.817  0.00  0.00    +0.000 A 
ATOM     16  C17 UNL     1     156.746 158.749 169.349  0.00  0.00    +0.000 A 
ATOM     17  C18 UNL     1     157.758 158.421 170.263  0.00  0.00    +0.000 A 
ATOM     18  C19 UNL     1     157.583 158.502 171.624  0.00  0.00    +0.000 A 
ATOM     19  C20 UNL     1     156.352 158.925 172.078  0.00  0.00    +0.000 A 
ATOM     20  C21 UNL     1     155.362 159.245 171.186  0.00  0.00    +0.000 A 
ENDBRANCH   5  15
BRANCH   1  21
ATOM     21  C6  UNL     1     153.402 162.368 166.656  0.00  0.00    +0.000 C 
BRANCH  21  23
ATOM     22  N1  UNL     1     151.139 162.583 167.618  0.00  0.00    +0.000 N 
ATOM     23  C5  UNL     1     151.916 162.354 166.479  0.00  0.00    +0.000 C 
ATOM     24  O2  UNL     1     151.457 162.145 165.364  0.00  0.00    +0.000 OA
ATOM     25  H5  UNL     1     151.632 162.759 168.559  0.00  0.00    +0.000 HD
BRANCH  22  28
ATOM     26  C2  UNL     1     147.543 161.613 167.982  0.00  0.00    +0.000 A 
ATOM     27  C3  UNL     1     148.948 161.551 167.972  0.00  0.00    +0.000 A 
ATOM     28  C4  UNL     1     149.735 162.607 167.625  0.00  0.00    +0.000 A 
ATOM     29  C22 UNL     1     149.101 163.794 167.267  0.00  0.00    +0.000 A 
ATOM     30  C23 UNL     1     147.736 163.874 167.271  0.00  0.00    +0.000 A 
ATOM     31  C25 UNL     1     146.953 162.788 167.627  0.00  0.00    +0.000 A 
BRANCH  26  33
ATOM     32  C1  UNL     1     146.683 159.438 167.449  0.00  0.00    +0.000 C 
ATOM     33  O1  UNL     1     146.782 160.516 168.342  0.00  0.00    +0.000 OA
ENDBRANCH  26  33
BRANCH  30  34
ATOM     34  O5  UNL     1     147.110 165.052 166.915  0.00  0.00    +0.000 OA
ATOM     35  C24 UNL     1     145.931 165.435 167.566  0.00  0.00    +0.000 C 
ENDBRANCH  30  34
ENDBRANCH  22  28
ENDBRANCH  21  23
ENDBRANCH   1  21
TORSDOF 7
ENDMDL
MODEL 9
REMARK VINA RESULT:      -6.2      3.220      6.633
REMARK  Name = ./3D_structures\o60_MMV1578572_3D.pdb
REMARK  9 active torsions:
REMARK  status: ('A' for Active; 'I' for Inactive)
REMARK    1  A    between atoms: C1_1  and  O1_2
REMARK    2  A    between atoms: O1_2  and  C2_3
REMARK    3  A    between atoms: C4_5  and  N1_6
REMARK    4  A    between atoms: C5_7  and  C6_9
REMARK    5  A    between atoms: C6_9  and  N2_10
REMARK    6  A    between atoms: C8_14  and  C10_17
REMARK    7  A    between atoms: C8_14  and  C16_23
REMARK    8  A    between atoms: C23_30  and  O5_31
REMARK    9  A    between atoms: O5_31  and  C24_32
REMARK                            x       y       z     vdW  Elec       q    Type
REMARK                         _______ _______ _______ _____ _____    ______ ____
ROOT
ATOM      1  N2  UNL     1     157.035 158.534 169.626  0.00  0.00    +0.000 N 
ATOM      2  C7  UNL     1     157.822 159.684 169.362  0.00  0.00    +0.000 C 
ATOM      3  O3  UNL     1     158.002 160.689 170.109  0.00  0.00    +0.000 OA
ATOM      4  N3  UNL     1     158.429 159.561 168.060  0.00  0.00    +0.000 N 
ATOM      5  C8  UNL     1     157.750 158.497 167.378  0.00  0.00    +0.000 C 
ATOM      6  C9  UNL     1     157.159 157.706 168.488  0.00  0.00    +0.000 C 
ATOM      7  O4  UNL     1     156.807 156.497 168.480  0.00  0.00    +0.000 OA
ATOM      8  H8  UNL     1     159.203 160.122 167.670  0.00  0.00    +0.000 HD
ENDROOT
BRANCH   5   9
ATOM      9  C10 UNL     1     156.595 159.082 166.637  0.00  0.00    +0.000 A 
ATOM     10  C11 UNL     1     155.363 158.478 166.649  0.00  0.00    +0.000 A 
ATOM     11  C12 UNL     1     154.321 159.038 165.957  0.00  0.00    +0.000 A 
ATOM     12  C13 UNL     1     154.515 160.194 165.259  0.00  0.00    +0.000 A 
ATOM     13  C14 UNL     1     155.757 160.835 165.226  0.00  0.00    +0.000 A 
ATOM     14  C15 UNL     1     156.786 160.241 165.937  0.00  0.00    +0.000 A 
ENDBRANCH   5   9
BRANCH   5  15
ATOM     15  C16 UNL     1     158.597 157.681 166.495  0.00  0.00    +0.000 A 
ATOM     16  C17 UNL     1     158.110 156.629 165.758  0.00  0.00    +0.000 A 
ATOM     17  C18 UNL     1     158.983 155.897 164.940  0.00  0.00    +0.000 A 
ATOM     18  C19 UNL     1     160.323 156.189 164.838  0.00  0.00    +0.000 A 
ATOM     19  C20 UNL     1     160.797 157.248 165.583  0.00  0.00    +0.000 A 
ATOM     20  C21 UNL     1     159.944 157.962 166.383  0.00  0.00    +0.000 A 
ENDBRANCH   5  15
BRANCH   1  21
ATOM     21  C6  UNL     1     156.283 158.326 170.849  0.00  0.00    +0.000 C 
BRANCH  21  23
ATOM     22  N1  UNL     1     154.042 158.468 169.825  0.00  0.00    +0.000 N 
ATOM     23  C5  UNL     1     154.930 158.962 170.785  0.00  0.00    +0.000 C 
ATOM     24  O2  UNL     1     154.667 159.871 171.561  0.00  0.00    +0.000 OA
ATOM     25  H5  UNL     1     154.362 157.664 169.184  0.00  0.00    +0.000 HD
BRANCH  22  28
ATOM     26  C2  UNL     1     151.096 160.472 168.681  0.00  0.00    +0.000 A 
ATOM     27  C3  UNL     1     152.417 160.025 168.863  0.00  0.00    +0.000 A 
ATOM     28  C4  UNL     1     152.737 158.949 169.634  0.00  0.00    +0.000 A 
ATOM     29  C22 UNL     1     151.695 158.273 170.263  0.00  0.00    +0.000 A 
ATOM     30  C23 UNL     1     150.403 158.693 170.098  0.00  0.00    +0.000 A 
ATOM     31  C25 UNL     1     150.099 159.791 169.310  0.00  0.00    +0.000 A 
BRANCH  26  33
ATOM     32  C1  UNL     1     151.121 161.515 166.521  0.00  0.00    +0.000 C 
ATOM     33  O1  UNL     1     150.816 161.571 167.889  0.00  0.00    +0.000 OA
ENDBRANCH  26  33
BRANCH  30  34
ATOM     34  O5  UNL     1     149.372 158.021 170.724  0.00  0.00    +0.000 OA
ATOM     35  C24 UNL     1     148.384 157.394 169.953  0.00  0.00    +0.000 C 
ENDBRANCH  30  34
ENDBRANCH  22  28
ENDBRANCH  21  23
ENDBRANCH   1  21
TORSDOF 7
ENDMDL
