MODEL 1
REMARK VINA RESULT:      -7.5      0.000      0.000
REMARK  Name = ./3D_structures\o61_MMV1578568_3D.pdb
REMARK  5 active torsions:
REMARK  status: ('A' for Active; 'I' for Inactive)
REMARK    1  A    between atoms: C7_9  and  C8_10
REMARK    2  A    between atoms: C8_10  and  N2_11
REMARK    3  A    between atoms: C11_14  and  N3_17
REMARK    4  A    between atoms: N3_17  and  C14_18
REMARK    5  A    between atoms: C14_18  and  C15_19
REMARK                            x       y       z     vdW  Elec       q    Type
REMARK                         _______ _______ _______ _____ _____    ______ ____
ROOT
ATOM      1  N2  UNL     1     149.983 162.525 169.019  0.00  0.00    +0.000 NA
ATOM      2  C9  UNL     1     150.968 162.800 169.972  0.00  0.00    +0.000 C 
ATOM      3  C10 UNL     1     151.958 161.731 170.248  0.00  0.00    +0.000 C 
ATOM      4  C11 UNL     1     151.762 160.398 169.659  0.00  0.00    +0.000 C 
ATOM      5  C12 UNL     1     150.383 160.211 169.028  0.00  0.00    +0.000 C 
ATOM      6  C13 UNL     1     150.165 161.443 168.132  0.00  0.00    +0.000 C 
ENDROOT
BRANCH   4   7
ATOM      7  N3  UNL     1     152.003 159.238 170.506  0.00  0.00    +0.000 NA
ATOM      8  H17 UNL     1     152.799 159.492 171.113  0.00  0.00    +0.000 HD
BRANCH   7   9
ATOM      9  C14 UNL     1     152.369 158.092 169.729  0.00  0.00    +0.000 C 
BRANCH   9  10
ATOM     10  C15 UNL     1     153.816 157.988 169.409  0.00  0.00    +0.000 A 
ATOM     11  C16 UNL     1     154.834 158.459 170.181  0.00  0.00    +0.000 A 
ATOM     12  C17 UNL     1     156.160 158.333 169.759  0.00  0.00    +0.000 A 
ATOM     13  C18 UNL     1     157.261 158.854 170.584  0.00  0.00    +0.000 C 
ATOM     14  C19 UNL     1     158.598 158.371 170.122  0.00  0.00    +0.000 C 
ATOM     15  C20 UNL     1     158.739 158.468 168.636  0.00  0.00    +0.000 C 
ATOM     16  O2  UNL     1     157.755 157.585 168.083  0.00  0.00    +0.000 OA
ATOM     17  C21 UNL     1     156.444 157.732 168.555  0.00  0.00    +0.000 A 
ATOM     18  C22 UNL     1     155.367 157.278 167.830  0.00  0.00    +0.000 A 
ATOM     19  N4  UNL     1     154.107 157.397 168.232  0.00  0.00    +0.000 NA
ENDBRANCH   9  10
ENDBRANCH   7   9
ENDBRANCH   4   7
BRANCH   1  20
ATOM     20  C8  UNL     1     148.841 163.314 168.879  0.00  0.00    +0.000 C 
BRANCH  20  29
ATOM     21  O1  UNL     1     147.005 167.202 165.659  0.00  0.00    +0.000 OA
ATOM     22  C1  UNL     1     146.282 166.245 165.995  0.00  0.00    +0.000 A 
ATOM     23  C2  UNL     1     144.926 166.274 165.737  0.00  0.00    +0.000 A 
ATOM     24  C3  UNL     1     144.139 165.183 166.123  0.00  0.00    +0.000 A 
ATOM     25  C4  UNL     1     144.742 164.093 166.752  0.00  0.00    +0.000 A 
ATOM     26  C5  UNL     1     146.090 164.129 166.973  0.00  0.00    +0.000 A 
ATOM     27  N1  UNL     1     146.847 165.162 166.619  0.00  0.00    +0.000 N 
ATOM     28  C6  UNL     1     148.202 164.902 167.104  0.00  0.00    +0.000 C 
ATOM     29  C7  UNL     1     148.198 163.482 167.557  0.00  0.00    +0.000 C 
ATOM     30  N5  UNL     1     146.775 163.149 167.570  0.00  0.00    +0.000 N 
ATOM     31  C23 UNL     1     146.102 162.071 167.982  0.00  0.00    +0.000 A 
ATOM     32  O3  UNL     1     146.668 161.093 168.561  0.00  0.00    +0.000 OA
ATOM     33  C24 UNL     1     144.742 161.990 167.782  0.00  0.00    +0.000 A 
ATOM     34  N6  UNL     1     144.067 163.008 167.163  0.00  0.00    +0.000 NA
ENDBRANCH  20  29
ENDBRANCH   1  20
TORSDOF 5
ENDMDL
MODEL 2
REMARK VINA RESULT:      -7.4      2.901     11.143
REMARK  Name = ./3D_structures\o61_MMV1578568_3D.pdb
REMARK  5 active torsions:
REMARK  status: ('A' for Active; 'I' for Inactive)
REMARK    1  A    between atoms: C7_9  and  C8_10
REMARK    2  A    between atoms: C8_10  and  N2_11
REMARK    3  A    between atoms: C11_14  and  N3_17
REMARK    4  A    between atoms: N3_17  and  C14_18
REMARK    5  A    between atoms: C14_18  and  C15_19
REMARK                            x       y       z     vdW  Elec       q    Type
REMARK                         _______ _______ _______ _____ _____    ______ ____
ROOT
ATOM      1  N2  UNL     1     152.331 163.013 165.547  0.00  0.00    +0.000 NA
ATOM      2  C9  UNL     1     152.142 163.769 164.387  0.00  0.00    +0.000 C 
ATOM      3  C10 UNL     1     151.415 165.054 164.528  0.00  0.00    +0.000 C 
ATOM      4  C11 UNL     1     150.783 165.386 165.813  0.00  0.00    +0.000 C 
ATOM      5  C12 UNL     1     150.736 164.210 166.788  0.00  0.00    +0.000 C 
ATOM      6  C13 UNL     1     152.161 163.628 166.805  0.00  0.00    +0.000 C 
ENDROOT
BRANCH   4   7
ATOM      7  N3  UNL     1     149.448 165.967 165.784  0.00  0.00    +0.000 NA
ATOM      8  H17 UNL     1     149.539 166.906 166.206  0.00  0.00    +0.000 HD
BRANCH   7   9
ATOM      9  C14 UNL     1     148.529 165.200 166.570  0.00  0.00    +0.000 C 
BRANCH   9  10
ATOM     10  C15 UNL     1     147.094 165.447 166.273  0.00  0.00    +0.000 A 
ATOM     11  C16 UNL     1     146.141 164.487 166.115  0.00  0.00    +0.000 A 
ATOM     12  C17 UNL     1     144.826 164.839 165.803  0.00  0.00    +0.000 A 
ATOM     13  C18 UNL     1     143.797 163.803 165.617  0.00  0.00    +0.000 C 
ATOM     14  C19 UNL     1     142.415 164.371 165.584  0.00  0.00    +0.000 C 
ATOM     15  C20 UNL     1     142.337 165.588 164.720  0.00  0.00    +0.000 C 
ATOM     16  O2  UNL     1     143.183 166.569 165.333  0.00  0.00    +0.000 OA
ATOM     17  C21 UNL     1     144.485 166.163 165.652  0.00  0.00    +0.000 A 
ATOM     18  C22 UNL     1     145.498 167.077 165.828  0.00  0.00    +0.000 A 
ATOM     19  N4  UNL     1     146.748 166.742 166.126  0.00  0.00    +0.000 NA
ENDBRANCH   9  10
ENDBRANCH   7   9
ENDBRANCH   4   7
BRANCH   1  20
ATOM     20  C8  UNL     1     152.731 161.676 165.509  0.00  0.00    +0.000 C 
BRANCH  20  29
ATOM     21  O1  UNL     1     157.250 159.061 164.247  0.00  0.00    +0.000 OA
ATOM     22  C1  UNL     1     156.553 158.716 165.220  0.00  0.00    +0.000 A 
ATOM     23  C2  UNL     1     156.798 157.519 165.862  0.00  0.00    +0.000 A 
ATOM     24  C3  UNL     1     156.002 157.160 166.955  0.00  0.00    +0.000 A 
ATOM     25  C4  UNL     1     154.985 158.020 167.373  0.00  0.00    +0.000 A 
ATOM     26  C5  UNL     1     154.800 159.191 166.694  0.00  0.00    +0.000 A 
ATOM     27  N1  UNL     1     155.543 159.541 165.649  0.00  0.00    +0.000 N 
ATOM     28  C6  UNL     1     154.996 160.787 165.116  0.00  0.00    +0.000 C 
ATOM     29  C7  UNL     1     154.006 161.254 166.128  0.00  0.00    +0.000 C 
ATOM     30  N5  UNL     1     153.857 160.088 166.998  0.00  0.00    +0.000 N 
ATOM     31  C23 UNL     1     153.042 159.823 168.022  0.00  0.00    +0.000 A 
ATOM     32  O3  UNL     1     152.116 160.615 168.381  0.00  0.00    +0.000 OA
ATOM     33  C24 UNL     1     153.190 158.655 168.735  0.00  0.00    +0.000 A 
ATOM     34  N6  UNL     1     154.168 157.755 168.404  0.00  0.00    +0.000 NA
ENDBRANCH  20  29
ENDBRANCH   1  20
TORSDOF 5
ENDMDL
MODEL 3
REMARK VINA RESULT:      -7.3      1.804      2.974
REMARK  Name = ./3D_structures\o61_MMV1578568_3D.pdb
REMARK  5 active torsions:
REMARK  status: ('A' for Active; 'I' for Inactive)
REMARK    1  A    between atoms: C7_9  and  C8_10
REMARK    2  A    between atoms: C8_10  and  N2_11
REMARK    3  A    between atoms: C11_14  and  N3_17
REMARK    4  A    between atoms: N3_17  and  C14_18
REMARK    5  A    between atoms: C14_18  and  C15_19
REMARK                            x       y       z     vdW  Elec       q    Type
REMARK                         _______ _______ _______ _____ _____    ______ ____
ROOT
ATOM      1  N2  UNL     1     150.024 160.538 169.327  0.00  0.00    +0.000 NA
ATOM      2  C9  UNL     1     149.933 159.148 169.448  0.00  0.00    +0.000 C 
ATOM      3  C10 UNL     1     151.031 158.459 170.168  0.00  0.00    +0.000 C 
ATOM      4  C11 UNL     1     152.227 159.222 170.558  0.00  0.00    +0.000 C 
ATOM      5  C12 UNL     1     152.295 160.609 169.921  0.00  0.00    +0.000 C 
ATOM      6  C13 UNL     1     150.914 161.245 170.161  0.00  0.00    +0.000 C 
ENDROOT
BRANCH   4   7
ATOM      7  N3  UNL     1     153.527 158.598 170.356  0.00  0.00    +0.000 NA
ATOM      8  H17 UNL     1     154.217 159.367 170.379  0.00  0.00    +0.000 HD
BRANCH   7   9
ATOM      9  C14 UNL     1     153.604 157.954 169.079  0.00  0.00    +0.000 C 
BRANCH   9  10
ATOM     10  C15 UNL     1     154.974 157.842 168.516  0.00  0.00    +0.000 A 
ATOM     11  C16 UNL     1     156.100 158.384 169.055  0.00  0.00    +0.000 A 
ATOM     12  C17 UNL     1     157.333 158.240 168.415  0.00  0.00    +0.000 A 
ATOM     13  C18 UNL     1     158.549 158.838 168.989  0.00  0.00    +0.000 C 
ATOM     14  C19 UNL     1     159.795 158.335 168.334  0.00  0.00    +0.000 C 
ATOM     15  C20 UNL     1     159.669 158.315 166.844  0.00  0.00    +0.000 C 
ATOM     16  O2  UNL     1     158.626 157.378 166.544  0.00  0.00    +0.000 OA
ATOM     17  C21 UNL     1     157.416 157.547 167.230  0.00  0.00    +0.000 A 
ATOM     18  C22 UNL     1     156.239 157.025 166.744  0.00  0.00    +0.000 A 
ATOM     19  N4  UNL     1     155.067 157.161 167.354  0.00  0.00    +0.000 NA
ENDBRANCH   9  10
ENDBRANCH   7   9
ENDBRANCH   4   7
BRANCH   1  20
ATOM     20  C8  UNL     1     149.227 161.262 168.439  0.00  0.00    +0.000 C 
BRANCH  20  29
ATOM     21  O1  UNL     1     144.944 164.504 168.423  0.00  0.00    +0.000 OA
ATOM     22  C1  UNL     1     145.978 164.795 167.791  0.00  0.00    +0.000 A 
ATOM     23  C2  UNL     1     145.972 165.840 166.890  0.00  0.00    +0.000 A 
ATOM     24  C3  UNL     1     147.149 166.146 166.199  0.00  0.00    +0.000 A 
ATOM     25  C4  UNL     1     148.300 165.393 166.439  0.00  0.00    +0.000 A 
ATOM     26  C5  UNL     1     148.236 164.374 167.347  0.00  0.00    +0.000 A 
ATOM     27  N1  UNL     1     147.122 164.068 168.005  0.00  0.00    +0.000 N 
ATOM     28  C6  UNL     1     147.395 162.871 168.800  0.00  0.00    +0.000 C 
ATOM     29  C7  UNL     1     148.869 162.669 168.724  0.00  0.00    +0.000 C 
ATOM     30  N5  UNL     1     149.268 163.584 167.656  0.00  0.00    +0.000 N 
ATOM     31  C23 UNL     1     150.431 163.796 167.034  0.00  0.00    +0.000 A 
ATOM     32  O3  UNL     1     151.465 163.094 167.261  0.00  0.00    +0.000 OA
ATOM     33  C24 UNL     1     150.543 164.811 166.111  0.00  0.00    +0.000 A 
ATOM     34  N6  UNL     1     149.470 165.609 165.817  0.00  0.00    +0.000 NA
ENDBRANCH  20  29
ENDBRANCH   1  20
TORSDOF 5
ENDMDL
MODEL 4
REMARK VINA RESULT:      -7.3      2.713     11.214
REMARK  Name = ./3D_structures\o61_MMV1578568_3D.pdb
REMARK  5 active torsions:
REMARK  status: ('A' for Active; 'I' for Inactive)
REMARK    1  A    between atoms: C7_9  and  C8_10
REMARK    2  A    between atoms: C8_10  and  N2_11
REMARK    3  A    between atoms: C11_14  and  N3_17
REMARK    4  A    between atoms: N3_17  and  C14_18
REMARK    5  A    between atoms: C14_18  and  C15_19
REMARK                            x       y       z     vdW  Elec       q    Type
REMARK                         _______ _______ _______ _____ _____    ______ ____
ROOT
ATOM      1  N2  UNL     1     152.447 162.549 167.269  0.00  0.00    +0.000 NA
ATOM      2  C9  UNL     1     151.180 161.960 167.251  0.00  0.00    +0.000 C 
ATOM      3  C10 UNL     1     150.036 162.829 166.883  0.00  0.00    +0.000 C 
ATOM      4  C11 UNL     1     150.251 164.277 166.734  0.00  0.00    +0.000 C 
ATOM      5  C12 UNL     1     151.613 164.744 167.245  0.00  0.00    +0.000 C 
ATOM      6  C13 UNL     1     152.642 163.785 166.620  0.00  0.00    +0.000 C 
ENDROOT
BRANCH   4   7
ATOM      7  N3  UNL     1     149.253 165.174 167.300  0.00  0.00    +0.000 NA
ATOM      8  H17 UNL     1     148.480 164.570 167.623  0.00  0.00    +0.000 HD
BRANCH   7   9
ATOM      9  C14 UNL     1     148.744 166.078 166.313  0.00  0.00    +0.000 C 
BRANCH   9  10
ATOM     10  C15 UNL     1     147.271 166.038 166.128  0.00  0.00    +0.000 A 
ATOM     11  C16 UNL     1     146.497 164.919 166.162  0.00  0.00    +0.000 A 
ATOM     12  C17 UNL     1     145.121 165.001 165.940  0.00  0.00    +0.000 A 
ATOM     13  C18 UNL     1     144.285 163.790 165.962  0.00  0.00    +0.000 C 
ATOM     14  C19 UNL     1     142.824 164.106 165.999  0.00  0.00    +0.000 C 
ATOM     15  C20 UNL     1     142.464 165.180 165.023  0.00  0.00    +0.000 C 
ATOM     16  O2  UNL     1     143.163 166.357 165.447  0.00  0.00    +0.000 OA
ATOM     17  C21 UNL     1     144.537 166.219 165.683  0.00  0.00    +0.000 A 
ATOM     18  C22 UNL     1     145.379 167.308 165.665  0.00  0.00    +0.000 A 
ATOM     19  N4  UNL     1     146.687 167.229 165.878  0.00  0.00    +0.000 NA
ENDBRANCH   9  10
ENDBRANCH   7   9
ENDBRANCH   4   7
BRANCH   1  20
ATOM     20  C8  UNL     1     153.546 161.932 167.870  0.00  0.00    +0.000 C 
BRANCH  20  29
ATOM     21  O1  UNL     1     155.514 159.219 172.067  0.00  0.00    +0.000 OA
ATOM     22  C1  UNL     1     155.531 158.736 170.919  0.00  0.00    +0.000 A 
ATOM     23  C2  UNL     1     156.258 157.592 170.656  0.00  0.00    +0.000 A 
ATOM     24  C3  UNL     1     156.254 157.070 169.358  0.00  0.00    +0.000 A 
ATOM     25  C4  UNL     1     155.515 157.712 168.364  0.00  0.00    +0.000 A 
ATOM     26  C5  UNL     1     154.815 158.839 168.694  0.00  0.00    +0.000 A 
ATOM     27  N1  UNL     1     154.816 159.350 169.921  0.00  0.00    +0.000 N 
ATOM     28  C6  UNL     1     154.057 160.599 169.879  0.00  0.00    +0.000 C 
ATOM     29  C7  UNL     1     153.401 160.622 168.541  0.00  0.00    +0.000 C 
ATOM     30  N5  UNL     1     154.077 159.540 167.828  0.00  0.00    +0.000 N 
ATOM     31  C23 UNL     1     154.026 159.120 166.561  0.00  0.00    +0.000 A 
ATOM     32  O3  UNL     1     153.353 159.725 165.669  0.00  0.00    +0.000 OA
ATOM     33  C24 UNL     1     154.715 157.990 166.181  0.00  0.00    +0.000 A 
ATOM     34  N6  UNL     1     155.459 157.289 167.091  0.00  0.00    +0.000 NA
ENDBRANCH  20  29
ENDBRANCH   1  20
TORSDOF 5
ENDMDL
MODEL 5
REMARK VINA RESULT:      -7.3      3.463      4.666
REMARK  Name = ./3D_structures\o61_MMV1578568_3D.pdb
REMARK  5 active torsions:
REMARK  status: ('A' for Active; 'I' for Inactive)
REMARK    1  A    between atoms: C7_9  and  C8_10
REMARK    2  A    between atoms: C8_10  and  N2_11
REMARK    3  A    between atoms: C11_14  and  N3_17
REMARK    4  A    between atoms: N3_17  and  C14_18
REMARK    5  A    between atoms: C14_18  and  C15_19
REMARK                            x       y       z     vdW  Elec       q    Type
REMARK                         _______ _______ _______ _____ _____    ______ ____
ROOT
ATOM      1  N2  UNL     1     149.925 162.841 168.899  0.00  0.00    +0.000 NA
ATOM      2  C9  UNL     1     150.690 162.839 170.069  0.00  0.00    +0.000 C 
ATOM      3  C10 UNL     1     151.656 161.729 170.243  0.00  0.00    +0.000 C 
ATOM      4  C11 UNL     1     151.644 160.606 169.292  0.00  0.00    +0.000 C 
ATOM      5  C12 UNL     1     150.426 160.608 168.370  0.00  0.00    +0.000 C 
ATOM      6  C13 UNL     1     150.328 162.039 167.811  0.00  0.00    +0.000 C 
ENDROOT
BRANCH   4   7
ATOM      7  N3  UNL     1     151.769 159.259 169.828  0.00  0.00    +0.000 NA
ATOM      8  H17 UNL     1     151.534 158.621 169.050  0.00  0.00    +0.000 HD
BRANCH   7   9
ATOM      9  C14 UNL     1     150.842 159.035 170.897  0.00  0.00    +0.000 C 
BRANCH   9  10
ATOM     10  C15 UNL     1     150.056 157.779 170.791  0.00  0.00    +0.000 A 
ATOM     11  C16 UNL     1     150.535 156.523 171.009  0.00  0.00    +0.000 A 
ATOM     12  C17 UNL     1     149.706 155.410 170.845  0.00  0.00    +0.000 A 
ATOM     13  C18 UNL     1     150.225 154.051 171.066  0.00  0.00    +0.000 C 
ATOM     14  C19 UNL     1     149.137 153.029 171.134  0.00  0.00    +0.000 C 
ATOM     15  C20 UNL     1     148.130 153.218 170.044  0.00  0.00    +0.000 C 
ATOM     16  O2  UNL     1     147.525 154.497 170.277  0.00  0.00    +0.000 OA
ATOM     17  C21 UNL     1     148.397 155.578 170.461  0.00  0.00    +0.000 A 
ATOM     18  C22 UNL     1     147.981 156.875 170.260  0.00  0.00    +0.000 A 
ATOM     19  N4  UNL     1     148.769 157.932 170.417  0.00  0.00    +0.000 NA
ENDBRANCH   9  10
ENDBRANCH   7   9
ENDBRANCH   4   7
BRANCH   1  20
ATOM     20  C8  UNL     1     148.796 163.647 168.748  0.00  0.00    +0.000 C 
BRANCH  20  29
ATOM     21  O1  UNL     1     146.666 167.425 165.580  0.00  0.00    +0.000 OA
ATOM     22  C1  UNL     1     146.016 166.414 165.907  0.00  0.00    +0.000 A 
ATOM     23  C2  UNL     1     144.661 166.346 165.655  0.00  0.00    +0.000 A 
ATOM     24  C3  UNL     1     143.958 165.196 166.030  0.00  0.00    +0.000 A 
ATOM     25  C4  UNL     1     144.642 164.146 166.645  0.00  0.00    +0.000 A 
ATOM     26  C5  UNL     1     145.985 164.279 166.862  0.00  0.00    +0.000 A 
ATOM     27  N1  UNL     1     146.663 165.369 166.517  0.00  0.00    +0.000 N 
ATOM     28  C6  UNL     1     148.035 165.203 166.995  0.00  0.00    +0.000 C 
ATOM     29  C7  UNL     1     148.137 163.782 167.430  0.00  0.00    +0.000 C 
ATOM     30  N5  UNL     1     146.742 163.345 167.445  0.00  0.00    +0.000 N 
ATOM     31  C23 UNL     1     146.151 162.216 167.847  0.00  0.00    +0.000 A 
ATOM     32  O3  UNL     1     146.791 161.276 168.413  0.00  0.00    +0.000 OA
ATOM     33  C24 UNL     1     144.801 162.038 167.650  0.00  0.00    +0.000 A 
ATOM     34  N6  UNL     1     144.050 163.010 167.045  0.00  0.00    +0.000 NA
ENDBRANCH  20  29
ENDBRANCH   1  20
TORSDOF 5
ENDMDL
MODEL 6
REMARK VINA RESULT:      -7.2      2.130      3.710
REMARK  Name = ./3D_structures\o61_MMV1578568_3D.pdb
REMARK  5 active torsions:
REMARK  status: ('A' for Active; 'I' for Inactive)
REMARK    1  A    between atoms: C7_9  and  C8_10
REMARK    2  A    between atoms: C8_10  and  N2_11
REMARK    3  A    between atoms: C11_14  and  N3_17
REMARK    4  A    between atoms: N3_17  and  C14_18
REMARK    5  A    between atoms: C14_18  and  C15_19
REMARK                            x       y       z     vdW  Elec       q    Type
REMARK                         _______ _______ _______ _____ _____    ______ ____
ROOT
ATOM      1  N2  UNL     1     150.301 165.475 166.264  0.00  0.00    +0.000 NA
ATOM      2  C9  UNL     1     150.951 165.803 167.457  0.00  0.00    +0.000 C 
ATOM      3  C10 UNL     1     152.270 165.174 167.704  0.00  0.00    +0.000 C 
ATOM      4  C11 UNL     1     152.747 164.120 166.795  0.00  0.00    +0.000 C 
ATOM      5  C12 UNL     1     151.671 163.616 165.834  0.00  0.00    +0.000 C 
ATOM      6  C13 UNL     1     151.038 164.878 165.220  0.00  0.00    +0.000 C 
ENDROOT
BRANCH   4   7
ATOM      7  N3  UNL     1     153.374 162.946 167.385  0.00  0.00    +0.000 NA
ATOM      8  H17 UNL     1     154.331 162.912 166.999  0.00  0.00    +0.000 HD
BRANCH   7   9
ATOM      9  C14 UNL     1     152.688 161.746 167.011  0.00  0.00    +0.000 C 
BRANCH   9  10
ATOM     10  C15 UNL     1     153.458 160.493 167.222  0.00  0.00    +0.000 A 
ATOM     11  C16 UNL     1     154.009 160.089 168.400  0.00  0.00    +0.000 A 
ATOM     12  C17 UNL     1     154.743 158.903 168.471  0.00  0.00    +0.000 A 
ATOM     13  C18 UNL     1     155.350 158.473 169.739  0.00  0.00    +0.000 C 
ATOM     14  C19 UNL     1     155.834 157.059 169.690  0.00  0.00    +0.000 C 
ATOM     15  C20 UNL     1     156.586 156.775 168.429  0.00  0.00    +0.000 C 
ATOM     16  O2  UNL     1     155.648 156.939 167.358  0.00  0.00    +0.000 OA
ATOM     17  C21 UNL     1     154.916 158.134 167.344  0.00  0.00    +0.000 A 
ATOM     18  C22 UNL     1     154.331 158.601 166.189  0.00  0.00    +0.000 A 
ATOM     19  N4  UNL     1     153.632 159.728 166.124  0.00  0.00    +0.000 NA
ENDBRANCH   9  10
ENDBRANCH   7   9
ENDBRANCH   4   7
BRANCH   1  20
ATOM     20  C8  UNL     1     148.953 165.760 166.046  0.00  0.00    +0.000 C 
BRANCH  20  29
ATOM     21  O1  UNL     1     146.755 161.606 168.647  0.00  0.00    +0.000 OA
ATOM     22  C1  UNL     1     146.050 162.446 168.057  0.00  0.00    +0.000 A 
ATOM     23  C2  UNL     1     144.704 162.210 167.862  0.00  0.00    +0.000 A 
ATOM     24  C3  UNL     1     143.936 163.174 167.200  0.00  0.00    +0.000 A 
ATOM     25  C4  UNL     1     144.544 164.350 166.758  0.00  0.00    +0.000 A 
ATOM     26  C5  UNL     1     145.881 164.519 166.988  0.00  0.00    +0.000 A 
ATOM     27  N1  UNL     1     146.624 163.609 167.608  0.00  0.00    +0.000 N 
ATOM     28  C6  UNL     1     148.009 164.075 167.579  0.00  0.00    +0.000 C 
ATOM     29  C7  UNL     1     147.946 165.483 167.094  0.00  0.00    +0.000 C 
ATOM     30  N5  UNL     1     146.572 165.598 166.607  0.00  0.00    +0.000 N 
ATOM     31  C23 UNL     1     145.921 166.566 165.957  0.00  0.00    +0.000 A 
ATOM     32  O3  UNL     1     146.496 167.625 165.555  0.00  0.00    +0.000 OA
ATOM     33  C24 UNL     1     144.574 166.439 165.702  0.00  0.00    +0.000 A 
ATOM     34  N6  UNL     1     143.889 165.325 166.108  0.00  0.00    +0.000 NA
ENDBRANCH  20  29
ENDBRANCH   1  20
TORSDOF 5
ENDMDL
MODEL 7
REMARK VINA RESULT:      -7.1      1.549      2.253
REMARK  Name = ./3D_structures\o61_MMV1578568_3D.pdb
REMARK  5 active torsions:
REMARK  status: ('A' for Active; 'I' for Inactive)
REMARK    1  A    between atoms: C7_9  and  C8_10
REMARK    2  A    between atoms: C8_10  and  N2_11
REMARK    3  A    between atoms: C11_14  and  N3_17
REMARK    4  A    between atoms: N3_17  and  C14_18
REMARK    5  A    between atoms: C14_18  and  C15_19
REMARK                            x       y       z     vdW  Elec       q    Type
REMARK                         _______ _______ _______ _____ _____    ______ ____
ROOT
ATOM      1  N2  UNL     1     148.619 164.540 169.354  0.00  0.00    +0.000 NA
ATOM      2  C9  UNL     1     149.246 165.099 170.471  0.00  0.00    +0.000 C 
ATOM      3  C10 UNL     1     150.519 164.480 170.913  0.00  0.00    +0.000 C 
ATOM      4  C11 UNL     1     150.965 163.226 170.287  0.00  0.00    +0.000 C 
ATOM      5  C12 UNL     1     149.895 162.569 169.416  0.00  0.00    +0.000 C 
ATOM      6  C13 UNL     1     149.356 163.687 168.506  0.00  0.00    +0.000 C 
ENDROOT
BRANCH   4   7
ATOM      7  N3  UNL     1     151.504 162.188 171.154  0.00  0.00    +0.000 NA
ATOM      8  H17 UNL     1     152.518 162.373 171.222  0.00  0.00    +0.000 HD
BRANCH   7   9
ATOM      9  C14 UNL     1     151.315 160.886 170.588  0.00  0.00    +0.000 C 
BRANCH   9  10
ATOM     10  C15 UNL     1     152.545 160.058 170.497  0.00  0.00    +0.000 A 
ATOM     11  C16 UNL     1     153.716 160.304 171.145  0.00  0.00    +0.000 A 
ATOM     12  C17 UNL     1     154.821 159.471 170.955  0.00  0.00    +0.000 A 
ATOM     13  C18 UNL     1     156.092 159.744 171.643  0.00  0.00    +0.000 C 
ATOM     14  C19 UNL     1     157.049 158.598 171.551  0.00  0.00    +0.000 C 
ATOM     15  C20 UNL     1     157.116 158.044 170.163  0.00  0.00    +0.000 C 
ATOM     16  O2  UNL     1     155.810 157.530 169.874  0.00  0.00    +0.000 OA
ATOM     17  C21 UNL     1     154.731 158.393 170.106  0.00  0.00    +0.000 A 
ATOM     18  C22 UNL     1     153.517 158.204 169.486  0.00  0.00    +0.000 A 
ATOM     19  N4  UNL     1     152.467 158.996 169.669  0.00  0.00    +0.000 NA
ENDBRANCH   9  10
ENDBRANCH   7   9
ENDBRANCH   4   7
BRANCH   1  20
ATOM     20  C8  UNL     1     147.297 164.833 169.017  0.00  0.00    +0.000 C 
BRANCH  20  29
ATOM     21  O1  UNL     1     144.227 167.231 165.318  0.00  0.00    +0.000 OA
ATOM     22  C1  UNL     1     144.006 166.060 165.683  0.00  0.00    +0.000 A 
ATOM     23  C2  UNL     1     142.835 165.428 165.317  0.00  0.00    +0.000 A 
ATOM     24  C3  UNL     1     142.616 164.111 165.737  0.00  0.00    +0.000 A 
ATOM     25  C4  UNL     1     143.584 163.469 166.510  0.00  0.00    +0.000 A 
ATOM     26  C5  UNL     1     144.722 164.154 166.833  0.00  0.00    +0.000 A 
ATOM     27  N1  UNL     1     144.940 165.406 166.447  0.00  0.00    +0.000 N 
ATOM     28  C6  UNL     1     146.193 165.845 167.059  0.00  0.00    +0.000 C 
ATOM     29  C7  UNL     1     146.806 164.616 167.638  0.00  0.00    +0.000 C 
ATOM     30  N5  UNL     1     145.715 163.646 167.569  0.00  0.00    +0.000 N 
ATOM     31  C23 UNL     1     145.586 162.397 168.024  0.00  0.00    +0.000 A 
ATOM     32  O3  UNL     1     146.476 161.833 168.734  0.00  0.00    +0.000 OA
ATOM     33  C24 UNL     1     144.456 161.668 167.725  0.00  0.00    +0.000 A 
ATOM     34  N6  UNL     1     143.457 162.212 166.964  0.00  0.00    +0.000 NA
ENDBRANCH  20  29
ENDBRANCH   1  20
TORSDOF 5
ENDMDL
MODEL 8
REMARK VINA RESULT:      -7.0      3.183     10.118
REMARK  Name = ./3D_structures\o61_MMV1578568_3D.pdb
REMARK  5 active torsions:
REMARK  status: ('A' for Active; 'I' for Inactive)
REMARK    1  A    between atoms: C7_9  and  C8_10
REMARK    2  A    between atoms: C8_10  and  N2_11
REMARK    3  A    between atoms: C11_14  and  N3_17
REMARK    4  A    between atoms: N3_17  and  C14_18
REMARK    5  A    between atoms: C14_18  and  C15_19
REMARK                            x       y       z     vdW  Elec       q    Type
REMARK                         _______ _______ _______ _____ _____    ______ ____
ROOT
ATOM      1  N2  UNL     1     154.009 161.018 165.657  0.00  0.00    +0.000 NA
ATOM      2  C9  UNL     1     152.681 160.682 165.378  0.00  0.00    +0.000 C 
ATOM      3  C10 UNL     1     151.882 161.667 164.611  0.00  0.00    +0.000 C 
ATOM      4  C11 UNL     1     152.447 162.998 164.338  0.00  0.00    +0.000 C 
ATOM      5  C12 UNL     1     153.722 163.288 165.129  0.00  0.00    +0.000 C 
ATOM      6  C13 UNL     1     154.625 162.057 164.929  0.00  0.00    +0.000 C 
ENDROOT
BRANCH   4   7
ATOM      7  N3  UNL     1     151.575 164.152 164.498  0.00  0.00    +0.000 NA
ATOM      8  H17 UNL     1     151.948 164.879 163.865  0.00  0.00    +0.000 HD
BRANCH   7   9
ATOM      9  C14 UNL     1     151.614 164.653 165.840  0.00  0.00    +0.000 C 
BRANCH   9  10
ATOM     10  C15 UNL     1     150.288 164.790 166.495  0.00  0.00    +0.000 A 
ATOM     11  C16 UNL     1     149.843 164.050 167.548  0.00  0.00    +0.000 A 
ATOM     12  C17 UNL     1     148.559 164.247 168.061  0.00  0.00    +0.000 A 
ATOM     13  C18 UNL     1     148.071 163.438 169.189  0.00  0.00    +0.000 C 
ATOM     14  C19 UNL     1     146.812 163.985 169.781  0.00  0.00    +0.000 C 
ATOM     15  C20 UNL     1     145.825 164.369 168.724  0.00  0.00    +0.000 C 
ATOM     16  O2  UNL     1     146.434 165.427 167.974  0.00  0.00    +0.000 OA
ATOM     17  C21 UNL     1     147.733 165.193 167.502  0.00  0.00    +0.000 A 
ATOM     18  C22 UNL     1     148.249 165.905 166.443  0.00  0.00    +0.000 A 
ATOM     19  N4  UNL     1     149.470 165.718 165.957  0.00  0.00    +0.000 NA
ENDBRANCH   9  10
ENDBRANCH   7   9
ENDBRANCH   4   7
BRANCH   1  20
ATOM     20  C8  UNL     1     154.770 160.327 166.602  0.00  0.00    +0.000 C 
BRANCH  20  29
ATOM     21  O1  UNL     1     155.191 162.633 171.435  0.00  0.00    +0.000 OA
ATOM     22  C1  UNL     1     155.437 161.422 171.272  0.00  0.00    +0.000 A 
ATOM     23  C2  UNL     1     156.042 160.694 172.276  0.00  0.00    +0.000 A 
ATOM     24  C3  UNL     1     156.302 159.336 172.066  0.00  0.00    +0.000 A 
ATOM     25  C4  UNL     1     155.942 158.749 170.852  0.00  0.00    +0.000 A 
ATOM     26  C5  UNL     1     155.343 159.529 169.903  0.00  0.00    +0.000 A 
ATOM     27  N1  UNL     1     155.097 160.822 170.086  0.00  0.00    +0.000 N 
ATOM     28  C6  UNL     1     154.555 161.349 168.835  0.00  0.00    +0.000 C 
ATOM     29  C7  UNL     1     154.276 160.156 167.986  0.00  0.00    +0.000 C 
ATOM     30  N5  UNL     1     154.958 159.080 168.704  0.00  0.00    +0.000 N 
ATOM     31  C23 UNL     1     155.178 157.796 168.412  0.00  0.00    +0.000 A 
ATOM     32  O3  UNL     1     154.850 157.284 167.297  0.00  0.00    +0.000 OA
ATOM     33  C24 UNL     1     155.780 156.972 169.337  0.00  0.00    +0.000 A 
ATOM     34  N6  UNL     1     156.159 157.457 170.559  0.00  0.00    +0.000 NA
ENDBRANCH  20  29
ENDBRANCH   1  20
TORSDOF 5
ENDMDL
MODEL 9
REMARK VINA RESULT:      -7.0      2.079      3.366
REMARK  Name = ./3D_structures\o61_MMV1578568_3D.pdb
REMARK  5 active torsions:
REMARK  status: ('A' for Active; 'I' for Inactive)
REMARK    1  A    between atoms: C7_9  and  C8_10
REMARK    2  A    between atoms: C8_10  and  N2_11
REMARK    3  A    between atoms: C11_14  and  N3_17
REMARK    4  A    between atoms: N3_17  and  C14_18
REMARK    5  A    between atoms: C14_18  and  C15_19
REMARK                            x       y       z     vdW  Elec       q    Type
REMARK                         _______ _______ _______ _____ _____    ______ ____
ROOT
ATOM      1  N2  UNL     1     151.432 160.011 169.941  0.00  0.00    +0.000 NA
ATOM      2  C9  UNL     1     150.921 158.709 169.937  0.00  0.00    +0.000 C 
ATOM      3  C10 UNL     1     151.901 157.599 169.861  0.00  0.00    +0.000 C 
ATOM      4  C11 UNL     1     153.319 157.905 169.619  0.00  0.00    +0.000 C 
ATOM      5  C12 UNL     1     153.564 159.356 169.207  0.00  0.00    +0.000 C 
ATOM      6  C13 UNL     1     152.797 160.214 170.229  0.00  0.00    +0.000 C 
ENDROOT
BRANCH   4   7
ATOM      7  N3  UNL     1     154.044 157.067 168.674  0.00  0.00    +0.000 NA
ATOM      8  H17 UNL     1     154.877 156.726 169.180  0.00  0.00    +0.000 HD
BRANCH   7   9
ATOM      9  C14 UNL     1     154.477 157.819 167.536  0.00  0.00    +0.000 C 
BRANCH   9  10
ATOM     10  C15 UNL     1     155.866 157.537 167.091  0.00  0.00    +0.000 A 
ATOM     11  C16 UNL     1     156.983 158.191 167.515  0.00  0.00    +0.000 A 
ATOM     12  C17 UNL     1     158.237 157.860 166.998  0.00  0.00    +0.000 A 
ATOM     13  C18 UNL     1     159.443 158.576 167.444  0.00  0.00    +0.000 C 
ATOM     14  C19 UNL     1     160.703 157.895 167.012  0.00  0.00    +0.000 C 
ATOM     15  C20 UNL     1     160.639 157.469 165.581  0.00  0.00    +0.000 C 
ATOM     16  O2  UNL     1     159.585 156.501 165.498  0.00  0.00    +0.000 OA
ATOM     17  C21 UNL     1     158.352 156.868 166.053  0.00  0.00    +0.000 A 
ATOM     18  C22 UNL     1     157.183 156.249 165.673  0.00  0.00    +0.000 A 
ATOM     19  N4  UNL     1     155.991 156.563 166.166  0.00  0.00    +0.000 NA
ENDBRANCH   9  10
ENDBRANCH   7   9
ENDBRANCH   4   7
BRANCH   1  20
ATOM     20  C8  UNL     1     150.626 161.128 169.717  0.00  0.00    +0.000 C 
BRANCH  20  29
ATOM     21  O1  UNL     1     151.253 165.769 167.087  0.00  0.00    +0.000 OA
ATOM     22  C1  UNL     1     150.175 165.146 167.051  0.00  0.00    +0.000 A 
ATOM     23  C2  UNL     1     149.045 165.740 166.526  0.00  0.00    +0.000 A 
ATOM     24  C3  UNL     1     147.850 165.013 166.494  0.00  0.00    +0.000 A 
ATOM     25  C4  UNL     1     147.828 163.709 166.989  0.00  0.00    +0.000 A 
ATOM     26  C5  UNL     1     148.984 163.181 167.493  0.00  0.00    +0.000 A 
ATOM     27  N1  UNL     1     150.124 163.863 167.535  0.00  0.00    +0.000 N 
ATOM     28  C6  UNL     1     151.109 163.032 168.228  0.00  0.00    +0.000 C 
ATOM     29  C7  UNL     1     150.477 161.688 168.356  0.00  0.00    +0.000 C 
ATOM     30  N5  UNL     1     149.084 161.948 167.997  0.00  0.00    +0.000 N 
ATOM     31  C23 UNL     1     147.987 161.186 168.019  0.00  0.00    +0.000 A 
ATOM     32  O3  UNL     1     147.987 160.004 168.482  0.00  0.00    +0.000 OA
ATOM     33  C24 UNL     1     146.799 161.675 167.524  0.00  0.00    +0.000 A 
ATOM     34  N6  UNL     1     146.727 162.941 167.008  0.00  0.00    +0.000 NA
ENDBRANCH  20  29
ENDBRANCH   1  20
TORSDOF 5
ENDMDL
