MODEL 1
REMARK VINA RESULT:      -5.8      0.000      0.000
REMARK  Name = ./3D_structures\o63_MMV1634403_3D.pdb
REMARK  17 active torsions:
REMARK  status: ('A' for Active; 'I' for Inactive)
REMARK    1  A    between atoms: N1_3  and  C27_36
REMARK    2  A    between atoms: N2_8  and  C5_9
REMARK    3  A    between atoms: C5_9  and  C6_10
REMARK    4  A    between atoms: C6_10  and  C7_11
REMARK    5  A    between atoms: C10_14  and  N3_15
REMARK    6  A    between atoms: C13_19  and  C14_20
REMARK    7  A    between atoms: C14_20  and  C15_21
REMARK    8  A    between atoms: N5_27  and  C21_28
REMARK    9  A    between atoms: C21_28  and  C22_29
REMARK   10  A    between atoms: C22_29  and  N6_30
REMARK   11  A    between atoms: N6_30  and  C23_31
REMARK   12  A    between atoms: N6_30  and  C25_34
REMARK   13  A    between atoms: C23_31  and  C24_32
REMARK   14  A    between atoms: C24_32  and  O3_33
REMARK   15  A    between atoms: C25_34  and  C26_35
REMARK   16  A    between atoms: C27_36  and  C28_37
REMARK   17  A    between atoms: C28_37  and  C29_38
REMARK                            x       y       z     vdW  Elec       q    Type
REMARK                         _______ _______ _______ _____ _____    ______ ____
ROOT
ATOM      1  O1  UNL     1     162.147 158.593 167.540  0.00  0.00    +0.000 OA
ATOM      2  C1  UNL     1     161.176 158.129 166.888  0.00  0.00    +0.000 A 
ATOM      3  N1  UNL     1     161.427 157.367 165.805  0.00  0.00    +0.000 N 
ATOM      4  C2  UNL     1     160.405 156.872 165.109  0.00  0.00    +0.000 A 
ATOM      5  O2  UNL     1     160.678 156.168 164.116  0.00  0.00    +0.000 OA
ATOM      6  C3  UNL     1     159.073 157.096 165.434  0.00  0.00    +0.000 A 
ATOM      7  C4  UNL     1     158.890 157.887 166.561  0.00  0.00    +0.000 A 
ATOM      8  N2  UNL     1     159.917 158.387 167.264  0.00  0.00    +0.000 N 
ATOM      9  N4  UNL     1     157.586 157.975 166.736  0.00  0.00    +0.000 NA
ATOM     10  C13 UNL     1     156.966 157.264 165.754  0.00  0.00    +0.000 A 
ATOM     11  N5  UNL     1     157.898 156.707 164.926  0.00  0.00    +0.000 N 
ENDROOT
BRANCH   8  12
ATOM     12  C5  UNL     1     159.698 159.208 168.435  0.00  0.00    +0.000 C 
BRANCH  12  13
ATOM     13  C6  UNL     1     159.088 158.348 169.552  0.00  0.00    +0.000 C 
BRANCH  13  14
ATOM     14  C7  UNL     1     157.915 159.036 170.145  0.00  0.00    +0.000 A 
ATOM     15  C8  UNL     1     157.338 158.551 171.312  0.00  0.00    +0.000 A 
ATOM     16  C9  UNL     1     156.246 159.163 171.893  0.00  0.00    +0.000 A 
ATOM     17  C10 UNL     1     155.688 160.280 171.335  0.00  0.00    +0.000 A 
ATOM     18  C11 UNL     1     156.257 160.774 170.169  0.00  0.00    +0.000 A 
ATOM     19  C12 UNL     1     157.342 160.162 169.593  0.00  0.00    +0.000 A 
BRANCH  17  20
ATOM     20  N3  UNL     1     154.561 160.951 171.896  0.00  0.00    +0.000 N 
ATOM     21  H7  UNL     1     153.738 160.480 172.297  0.00  0.00    +0.000 HD
ATOM     22  H8  UNL     1     154.604 162.000 171.881  0.00  0.00    +0.000 HD
ENDBRANCH  17  20
ENDBRANCH  13  14
ENDBRANCH  12  13
ENDBRANCH   8  12
BRANCH  10  23
ATOM     23  C14 UNL     1     155.504 157.121 165.707  0.00  0.00    +0.000 C 
BRANCH  23  24
ATOM     24  C15 UNL     1     154.737 157.872 166.700  0.00  0.00    +0.000 A 
ATOM     25  C16 UNL     1     154.133 159.056 166.358  0.00  0.00    +0.000 A 
ATOM     26  C17 UNL     1     153.395 159.816 167.247  0.00  0.00    +0.000 A 
ATOM     27  C18 UNL     1     153.263 159.352 168.544  0.00  0.00    +0.000 A 
ATOM     28  C19 UNL     1     153.862 158.165 168.904  0.00  0.00    +0.000 A 
ATOM     29  C20 UNL     1     154.598 157.415 168.004  0.00  0.00    +0.000 A 
ENDBRANCH  23  24
ENDBRANCH  10  23
BRANCH  11  30
ATOM     30  C21 UNL     1     157.641 155.868 163.778  0.00  0.00    +0.000 C 
BRANCH  30  31
ATOM     31  C22 UNL     1     157.668 154.412 164.006  0.00  0.00    +0.000 C 
BRANCH  31  32
ATOM     32  N6  UNL     1     158.006 153.497 163.018  0.00  0.00    +0.000 NA
BRANCH  32  33
ATOM     33  C25 UNL     1     157.098 152.432 162.778  0.00  0.00    +0.000 C 
ATOM     34  C26 UNL     1     156.606 151.721 164.011  0.00  0.00    +0.000 C 
ENDBRANCH  32  33
BRANCH  32  35
ATOM     35  C23 UNL     1     159.329 153.363 162.570  0.00  0.00    +0.000 C 
BRANCH  35  36
ATOM     36  C24 UNL     1     160.227 152.568 163.497  0.00  0.00    +0.000 C 
BRANCH  36  37
ATOM     37  O3  UNL     1     161.104 153.349 164.200  0.00  0.00    +0.000 OA
ATOM     38  H26 UNL     1     161.839 152.828 164.631  0.00  0.00    +0.000 HD
ENDBRANCH  36  37
ENDBRANCH  35  36
ENDBRANCH  32  35
ENDBRANCH  31  32
ENDBRANCH  30  31
ENDBRANCH  11  30
BRANCH   3  39
ATOM     39  C27 UNL     1     162.798 157.107 165.449  0.00  0.00    +0.000 C 
BRANCH  39  40
ATOM     40  C28 UNL     1     163.374 155.856 166.021  0.00  0.00    +0.000 C 
ATOM     41  C29 UNL     1     164.712 155.628 165.306  0.00  0.00    +0.000 C 
ENDBRANCH  39  40
ENDBRANCH   3  39
TORSDOF 15
ENDMDL
MODEL 2
REMARK VINA RESULT:      -5.7      8.169     12.400
REMARK  Name = ./3D_structures\o63_MMV1634403_3D.pdb
REMARK  17 active torsions:
REMARK  status: ('A' for Active; 'I' for Inactive)
REMARK    1  A    between atoms: N1_3  and  C27_36
REMARK    2  A    between atoms: N2_8  and  C5_9
REMARK    3  A    between atoms: C5_9  and  C6_10
REMARK    4  A    between atoms: C6_10  and  C7_11
REMARK    5  A    between atoms: C10_14  and  N3_15
REMARK    6  A    between atoms: C13_19  and  C14_20
REMARK    7  A    between atoms: C14_20  and  C15_21
REMARK    8  A    between atoms: N5_27  and  C21_28
REMARK    9  A    between atoms: C21_28  and  C22_29
REMARK   10  A    between atoms: C22_29  and  N6_30
REMARK   11  A    between atoms: N6_30  and  C23_31
REMARK   12  A    between atoms: N6_30  and  C25_34
REMARK   13  A    between atoms: C23_31  and  C24_32
REMARK   14  A    between atoms: C24_32  and  O3_33
REMARK   15  A    between atoms: C25_34  and  C26_35
REMARK   16  A    between atoms: C27_36  and  C28_37
REMARK   17  A    between atoms: C28_37  and  C29_38
REMARK                            x       y       z     vdW  Elec       q    Type
REMARK                         _______ _______ _______ _____ _____    ______ ____
ROOT
ATOM      1  O1  UNL     1     163.129 150.274 165.475  0.00  0.00    +0.000 OA
ATOM      2  C1  UNL     1     163.026 149.175 166.078  0.00  0.00    +0.000 A 
ATOM      3  N1  UNL     1     164.043 148.769 166.864  0.00  0.00    +0.000 N 
ATOM      4  C2  UNL     1     163.943 147.606 167.506  0.00  0.00    +0.000 A 
ATOM      5  O2  UNL     1     164.904 147.268 168.226  0.00  0.00    +0.000 OA
ATOM      6  C3  UNL     1     162.837 146.771 167.416  0.00  0.00    +0.000 A 
ATOM      7  C4  UNL     1     161.828 147.254 166.592  0.00  0.00    +0.000 A 
ATOM      8  N2  UNL     1     161.927 148.424 165.943  0.00  0.00    +0.000 N 
ATOM      9  N4  UNL     1     160.859 146.360 166.642  0.00  0.00    +0.000 NA
ATOM     10  C13 UNL     1     161.242 145.349 167.467  0.00  0.00    +0.000 A 
ATOM     11  N5  UNL     1     162.491 145.598 167.960  0.00  0.00    +0.000 N 
ENDROOT
BRANCH   8  12
ATOM     12  C5  UNL     1     160.860 148.903 165.091  0.00  0.00    +0.000 C 
BRANCH  12  13
ATOM     13  C6  UNL     1     159.785 149.581 165.954  0.00  0.00    +0.000 C 
BRANCH  13  14
ATOM     14  C7  UNL     1     158.748 150.197 165.091  0.00  0.00    +0.000 A 
ATOM     15  C8  UNL     1     158.916 151.491 164.613  0.00  0.00    +0.000 A 
ATOM     16  C9  UNL     1     157.974 152.098 163.809  0.00  0.00    +0.000 A 
ATOM     17  C10 UNL     1     156.830 151.440 163.449  0.00  0.00    +0.000 A 
ATOM     18  C11 UNL     1     156.651 150.147 163.921  0.00  0.00    +0.000 A 
ATOM     19  C12 UNL     1     157.590 149.546 164.721  0.00  0.00    +0.000 A 
BRANCH  17  20
ATOM     20  N3  UNL     1     155.825 152.022 162.619  0.00  0.00    +0.000 N 
ATOM     21  H7  UNL     1     154.862 151.671 162.529  0.00  0.00    +0.000 HD
ATOM     22  H8  UNL     1     156.124 152.868 162.073  0.00  0.00    +0.000 HD
ENDBRANCH  17  20
ENDBRANCH  13  14
ENDBRANCH  12  13
ENDBRANCH   8  12
BRANCH  10  23
ATOM     23  C14 UNL     1     160.351 144.221 167.776  0.00  0.00    +0.000 C 
BRANCH  23  24
ATOM     24  C15 UNL     1     160.310 143.130 166.802  0.00  0.00    +0.000 A 
ATOM     25  C16 UNL     1     161.234 142.117 166.857  0.00  0.00    +0.000 A 
ATOM     26  C17 UNL     1     161.252 141.058 165.969  0.00  0.00    +0.000 A 
ATOM     27  C18 UNL     1     160.287 141.024 164.978  0.00  0.00    +0.000 A 
ATOM     28  C19 UNL     1     159.352 142.034 164.908  0.00  0.00    +0.000 A 
ATOM     29  C20 UNL     1     159.346 143.087 165.804  0.00  0.00    +0.000 A 
ENDBRANCH  23  24
ENDBRANCH  10  23
BRANCH  11  30
ATOM     30  C21 UNL     1     163.237 144.774 168.882  0.00  0.00    +0.000 C 
BRANCH  30  31
ATOM     31  C22 UNL     1     163.133 145.121 170.310  0.00  0.00    +0.000 C 
BRANCH  31  32
ATOM     32  N6  UNL     1     161.966 145.601 170.891  0.00  0.00    +0.000 NA
BRANCH  32  33
ATOM     33  C25 UNL     1     161.930 146.977 171.241  0.00  0.00    +0.000 C 
ATOM     34  C26 UNL     1     161.126 147.851 170.315  0.00  0.00    +0.000 C 
ENDBRANCH  32  33
BRANCH  32  35
ATOM     35  C23 UNL     1     161.039 144.733 171.487  0.00  0.00    +0.000 C 
BRANCH  35  36
ATOM     36  C24 UNL     1     161.340 144.391 172.933  0.00  0.00    +0.000 C 
BRANCH  36  37
ATOM     37  O3  UNL     1     161.037 143.096 173.256  0.00  0.00    +0.000 OA
ATOM     38  H26 UNL     1     161.284 142.854 174.192  0.00  0.00    +0.000 HD
ENDBRANCH  36  37
ENDBRANCH  35  36
ENDBRANCH  32  35
ENDBRANCH  31  32
ENDBRANCH  30  31
ENDBRANCH  11  30
BRANCH   3  39
ATOM     39  C27 UNL     1     165.200 149.619 166.986  0.00  0.00    +0.000 C 
BRANCH  39  40
ATOM     40  C28 UNL     1     165.241 150.456 168.221  0.00  0.00    +0.000 C 
ATOM     41  C29 UNL     1     166.600 151.167 168.217  0.00  0.00    +0.000 C 
ENDBRANCH  39  40
ENDBRANCH   3  39
TORSDOF 15
ENDMDL
MODEL 3
REMARK VINA RESULT:      -5.6      2.985      6.318
REMARK  Name = ./3D_structures\o63_MMV1634403_3D.pdb
REMARK  17 active torsions:
REMARK  status: ('A' for Active; 'I' for Inactive)
REMARK    1  A    between atoms: N1_3  and  C27_36
REMARK    2  A    between atoms: N2_8  and  C5_9
REMARK    3  A    between atoms: C5_9  and  C6_10
REMARK    4  A    between atoms: C6_10  and  C7_11
REMARK    5  A    between atoms: C10_14  and  N3_15
REMARK    6  A    between atoms: C13_19  and  C14_20
REMARK    7  A    between atoms: C14_20  and  C15_21
REMARK    8  A    between atoms: N5_27  and  C21_28
REMARK    9  A    between atoms: C21_28  and  C22_29
REMARK   10  A    between atoms: C22_29  and  N6_30
REMARK   11  A    between atoms: N6_30  and  C23_31
REMARK   12  A    between atoms: N6_30  and  C25_34
REMARK   13  A    between atoms: C23_31  and  C24_32
REMARK   14  A    between atoms: C24_32  and  O3_33
REMARK   15  A    between atoms: C25_34  and  C26_35
REMARK   16  A    between atoms: C27_36  and  C28_37
REMARK   17  A    between atoms: C28_37  and  C29_38
REMARK                            x       y       z     vdW  Elec       q    Type
REMARK                         _______ _______ _______ _____ _____    ______ ____
ROOT
ATOM      1  O1  UNL     1     160.324 158.007 165.289  0.00  0.00    +0.000 OA
ATOM      2  C1  UNL     1     159.482 157.892 166.216  0.00  0.00    +0.000 A 
ATOM      3  N1  UNL     1     158.331 157.235 165.969  0.00  0.00    +0.000 N 
ATOM      4  C2  UNL     1     157.432 157.109 166.944  0.00  0.00    +0.000 A 
ATOM      5  O2  UNL     1     156.382 156.491 166.676  0.00  0.00    +0.000 OA
ATOM      6  C3  UNL     1     157.610 157.620 168.223  0.00  0.00    +0.000 A 
ATOM      7  C4  UNL     1     158.818 158.282 168.407  0.00  0.00    +0.000 A 
ATOM      8  N2  UNL     1     159.724 158.411 167.426  0.00  0.00    +0.000 N 
ATOM      9  N4  UNL     1     158.829 158.675 169.665  0.00  0.00    +0.000 NA
ATOM     10  C13 UNL     1     157.670 158.276 170.257  0.00  0.00    +0.000 A 
ATOM     11  N5  UNL     1     156.893 157.611 169.353  0.00  0.00    +0.000 N 
ENDROOT
BRANCH   8  12
ATOM     12  C5  UNL     1     160.975 159.104 167.645  0.00  0.00    +0.000 C 
BRANCH  12  13
ATOM     13  C6  UNL     1     160.841 160.557 167.162  0.00  0.00    +0.000 C 
BRANCH  13  14
ATOM     14  C7  UNL     1     161.056 161.494 168.293  0.00  0.00    +0.000 A 
ATOM     15  C8  UNL     1     159.971 161.975 169.015  0.00  0.00    +0.000 A 
ATOM     16  C9  UNL     1     160.130 162.848 170.071  0.00  0.00    +0.000 A 
ATOM     17  C10 UNL     1     161.374 163.273 170.450  0.00  0.00    +0.000 A 
ATOM     18  C11 UNL     1     162.465 162.799 169.735  0.00  0.00    +0.000 A 
ATOM     19  C12 UNL     1     162.303 161.931 168.684  0.00  0.00    +0.000 A 
BRANCH  17  20
ATOM     20  N3  UNL     1     161.592 164.174 171.535  0.00  0.00    +0.000 N 
ATOM     21  H7  UNL     1     161.023 164.209 172.391  0.00  0.00    +0.000 HD
ATOM     22  H8  UNL     1     162.399 164.837 171.418  0.00  0.00    +0.000 HD
ENDBRANCH  17  20
ENDBRANCH  13  14
ENDBRANCH  12  13
ENDBRANCH   8  12
BRANCH  10  23
ATOM     23  C14 UNL     1     157.405 158.516 171.682  0.00  0.00    +0.000 C 
BRANCH  23  24
ATOM     24  C15 UNL     1     156.787 159.796 172.030  0.00  0.00    +0.000 A 
ATOM     25  C16 UNL     1     155.892 159.873 173.068  0.00  0.00    +0.000 A 
ATOM     26  C17 UNL     1     155.271 161.048 173.449  0.00  0.00    +0.000 A 
ATOM     27  C18 UNL     1     155.573 162.200 172.743  0.00  0.00    +0.000 A 
ATOM     28  C19 UNL     1     156.469 162.140 171.698  0.00  0.00    +0.000 A 
ATOM     29  C20 UNL     1     157.082 160.957 171.329  0.00  0.00    +0.000 A 
ENDBRANCH  23  24
ENDBRANCH  10  23
BRANCH  11  30
ATOM     30  C21 UNL     1     155.598 157.019 169.598  0.00  0.00    +0.000 C 
BRANCH  30  31
ATOM     31  C22 UNL     1     154.423 157.806 169.184  0.00  0.00    +0.000 C 
BRANCH  31  32
ATOM     32  N6  UNL     1     154.283 159.160 169.458  0.00  0.00    +0.000 NA
BRANCH  32  33
ATOM     33  C25 UNL     1     153.359 159.529 170.471  0.00  0.00    +0.000 C 
ATOM     34  C26 UNL     1     152.955 160.980 170.471  0.00  0.00    +0.000 C 
ENDBRANCH  32  33
BRANCH  32  35
ATOM     35  C23 UNL     1     154.691 160.136 168.536  0.00  0.00    +0.000 C 
BRANCH  35  36
ATOM     36  C24 UNL     1     154.320 159.834 167.098  0.00  0.00    +0.000 C 
BRANCH  36  37
ATOM     37  O3  UNL     1     153.022 160.147 166.798  0.00  0.00    +0.000 OA
ATOM     38  H26 UNL     1     152.483 160.404 167.598  0.00  0.00    +0.000 HD
ENDBRANCH  36  37
ENDBRANCH  35  36
ENDBRANCH  32  35
ENDBRANCH  31  32
ENDBRANCH  30  31
ENDBRANCH  11  30
BRANCH   3  39
ATOM     39  C27 UNL     1     158.122 156.684 164.654  0.00  0.00    +0.000 C 
BRANCH  39  40
ATOM     40  C28 UNL     1     158.575 155.273 164.482  0.00  0.00    +0.000 C 
ATOM     41  C29 UNL     1     157.695 154.666 163.381  0.00  0.00    +0.000 C 
ENDBRANCH  39  40
ENDBRANCH   3  39
TORSDOF 15
ENDMDL
MODEL 4
REMARK VINA RESULT:      -5.6      9.157     12.750
REMARK  Name = ./3D_structures\o63_MMV1634403_3D.pdb
REMARK  17 active torsions:
REMARK  status: ('A' for Active; 'I' for Inactive)
REMARK    1  A    between atoms: N1_3  and  C27_36
REMARK    2  A    between atoms: N2_8  and  C5_9
REMARK    3  A    between atoms: C5_9  and  C6_10
REMARK    4  A    between atoms: C6_10  and  C7_11
REMARK    5  A    between atoms: C10_14  and  N3_15
REMARK    6  A    between atoms: C13_19  and  C14_20
REMARK    7  A    between atoms: C14_20  and  C15_21
REMARK    8  A    between atoms: N5_27  and  C21_28
REMARK    9  A    between atoms: C21_28  and  C22_29
REMARK   10  A    between atoms: C22_29  and  N6_30
REMARK   11  A    between atoms: N6_30  and  C23_31
REMARK   12  A    between atoms: N6_30  and  C25_34
REMARK   13  A    between atoms: C23_31  and  C24_32
REMARK   14  A    between atoms: C24_32  and  O3_33
REMARK   15  A    between atoms: C25_34  and  C26_35
REMARK   16  A    between atoms: C27_36  and  C28_37
REMARK   17  A    between atoms: C28_37  and  C29_38
REMARK                            x       y       z     vdW  Elec       q    Type
REMARK                         _______ _______ _______ _____ _____    ______ ____
ROOT
ATOM      1  O1  UNL     1     144.852 163.489 166.760  0.00  0.00    +0.000 OA
ATOM      2  C1  UNL     1     146.063 163.384 167.083  0.00  0.00    +0.000 A 
ATOM      3  N1  UNL     1     146.775 164.508 167.303  0.00  0.00    +0.000 N 
ATOM      4  C2  UNL     1     148.059 164.407 167.643  0.00  0.00    +0.000 A 
ATOM      5  O2  UNL     1     148.682 165.469 167.842  0.00  0.00    +0.000 OA
ATOM      6  C3  UNL     1     148.723 163.195 167.789  0.00  0.00    +0.000 A 
ATOM      7  C4  UNL     1     147.927 162.081 167.550  0.00  0.00    +0.000 A 
ATOM      8  N2  UNL     1     146.635 162.180 167.206  0.00  0.00    +0.000 N 
ATOM      9  N4  UNL     1     148.700 161.032 167.755  0.00  0.00    +0.000 NA
ATOM     10  C13 UNL     1     149.939 161.467 168.111  0.00  0.00    +0.000 A 
ATOM     11  N5  UNL     1     149.963 162.832 168.134  0.00  0.00    +0.000 N 
ENDROOT
BRANCH   8  12
ATOM     12  C5  UNL     1     145.829 161.003 166.962  0.00  0.00    +0.000 C 
BRANCH  12  13
ATOM     13  C6  UNL     1     145.385 160.405 168.306  0.00  0.00    +0.000 C 
BRANCH  13  14
ATOM     14  C7  UNL     1     145.825 158.991 168.407  0.00  0.00    +0.000 A 
ATOM     15  C8  UNL     1     145.524 158.247 169.541  0.00  0.00    +0.000 A 
ATOM     16  C9  UNL     1     145.916 156.931 169.673  0.00  0.00    +0.000 A 
ATOM     17  C10 UNL     1     146.622 156.306 168.681  0.00  0.00    +0.000 A 
ATOM     18  C11 UNL     1     146.928 157.041 167.544  0.00  0.00    +0.000 A 
ATOM     19  C12 UNL     1     146.536 158.349 167.416  0.00  0.00    +0.000 A 
BRANCH  17  20
ATOM     20  N3  UNL     1     147.050 154.948 168.768  0.00  0.00    +0.000 N 
ATOM     21  H7  UNL     1     147.248 154.342 167.960  0.00  0.00    +0.000 HD
ATOM     22  H8  UNL     1     147.160 154.569 169.741  0.00  0.00    +0.000 HD
ENDBRANCH  17  20
ENDBRANCH  13  14
ENDBRANCH  12  13
ENDBRANCH   8  12
BRANCH  10  23
ATOM     23  C14 UNL     1     151.017 160.533 168.464  0.00  0.00    +0.000 C 
BRANCH  23  24
ATOM     24  C15 UNL     1     150.769 159.640 169.597  0.00  0.00    +0.000 A 
ATOM     25  C16 UNL     1     149.943 158.554 169.454  0.00  0.00    +0.000 A 
ATOM     26  C17 UNL     1     149.665 157.671 170.482  0.00  0.00    +0.000 A 
ATOM     27  C18 UNL     1     150.254 157.902 171.713  0.00  0.00    +0.000 A 
ATOM     28  C19 UNL     1     151.086 158.989 171.873  0.00  0.00    +0.000 A 
ATOM     29  C20 UNL     1     151.355 159.863 170.836  0.00  0.00    +0.000 A 
ENDBRANCH  23  24
ENDBRANCH  10  23
BRANCH  11  30
ATOM     30  C21 UNL     1     151.087 163.671 168.481  0.00  0.00    +0.000 C 
BRANCH  30  31
ATOM     31  C22 UNL     1     151.881 164.208 167.361  0.00  0.00    +0.000 C 
BRANCH  31  32
ATOM     32  N6  UNL     1     151.873 163.648 166.090  0.00  0.00    +0.000 NA
BRANCH  32  33
ATOM     33  C25 UNL     1     152.758 162.564 165.849  0.00  0.00    +0.000 C 
ATOM     34  C26 UNL     1     152.221 161.490 164.940  0.00  0.00    +0.000 C 
ENDBRANCH  32  33
BRANCH  32  35
ATOM     35  C23 UNL     1     151.355 164.347 164.989  0.00  0.00    +0.000 C 
BRANCH  35  36
ATOM     36  C24 UNL     1     151.167 165.833 165.221  0.00  0.00    +0.000 C 
BRANCH  36  37
ATOM     37  O3  UNL     1     149.853 166.206 165.298  0.00  0.00    +0.000 OA
ATOM     38  H26 UNL     1     149.235 165.577 164.828  0.00  0.00    +0.000 HD
ENDBRANCH  36  37
ENDBRANCH  35  36
ENDBRANCH  32  35
ENDBRANCH  31  32
ENDBRANCH  30  31
ENDBRANCH  11  30
BRANCH   3  39
ATOM     39  C27 UNL     1     146.112 165.780 167.169  0.00  0.00    +0.000 C 
BRANCH  39  40
ATOM     40  C28 UNL     1     146.279 166.443 165.844  0.00  0.00    +0.000 C 
ATOM     41  C29 UNL     1     145.078 167.382 165.675  0.00  0.00    +0.000 C 
ENDBRANCH  39  40
ENDBRANCH   3  39
TORSDOF 15
ENDMDL
MODEL 5
REMARK VINA RESULT:      -5.5      6.654     10.349
REMARK  Name = ./3D_structures\o63_MMV1634403_3D.pdb
REMARK  17 active torsions:
REMARK  status: ('A' for Active; 'I' for Inactive)
REMARK    1  A    between atoms: N1_3  and  C27_36
REMARK    2  A    between atoms: N2_8  and  C5_9
REMARK    3  A    between atoms: C5_9  and  C6_10
REMARK    4  A    between atoms: C6_10  and  C7_11
REMARK    5  A    between atoms: C10_14  and  N3_15
REMARK    6  A    between atoms: C13_19  and  C14_20
REMARK    7  A    between atoms: C14_20  and  C15_21
REMARK    8  A    between atoms: N5_27  and  C21_28
REMARK    9  A    between atoms: C21_28  and  C22_29
REMARK   10  A    between atoms: C22_29  and  N6_30
REMARK   11  A    between atoms: N6_30  and  C23_31
REMARK   12  A    between atoms: N6_30  and  C25_34
REMARK   13  A    between atoms: C23_31  and  C24_32
REMARK   14  A    between atoms: C24_32  and  O3_33
REMARK   15  A    between atoms: C25_34  and  C26_35
REMARK   16  A    between atoms: C27_36  and  C28_37
REMARK   17  A    between atoms: C28_37  and  C29_38
REMARK                            x       y       z     vdW  Elec       q    Type
REMARK                         _______ _______ _______ _____ _____    ______ ____
ROOT
ATOM      1  O1  UNL     1     149.370 162.085 169.801  0.00  0.00    +0.000 OA
ATOM      2  C1  UNL     1     150.177 161.953 168.846  0.00  0.00    +0.000 A 
ATOM      3  N1  UNL     1     151.067 160.941 168.884  0.00  0.00    +0.000 N 
ATOM      4  C2  UNL     1     151.927 160.794 167.877  0.00  0.00    +0.000 A 
ATOM      5  O2  UNL     1     152.731 159.844 167.947  0.00  0.00    +0.000 OA
ATOM      6  C3  UNL     1     151.965 161.633 166.770  0.00  0.00    +0.000 A 
ATOM      7  C4  UNL     1     151.020 162.651 166.798  0.00  0.00    +0.000 A 
ATOM      8  N2  UNL     1     150.154 162.801 167.811  0.00  0.00    +0.000 N 
ATOM      9  N4  UNL     1     151.180 163.326 165.677  0.00  0.00    +0.000 NA
ATOM     10  C13 UNL     1     152.190 162.756 164.965  0.00  0.00    +0.000 A 
ATOM     11  N5  UNL     1     152.694 161.687 165.649  0.00  0.00    +0.000 N 
ENDROOT
BRANCH   8  12
ATOM     12  C5  UNL     1     149.179 163.871 167.814  0.00  0.00    +0.000 C 
BRANCH  12  13
ATOM     13  C6  UNL     1     147.851 163.349 167.244  0.00  0.00    +0.000 C 
BRANCH  13  14
ATOM     14  C7  UNL     1     147.020 164.481 166.763  0.00  0.00    +0.000 A 
ATOM     15  C8  UNL     1     147.625 165.644 166.304  0.00  0.00    +0.000 A 
ATOM     16  C9  UNL     1     146.887 166.717 165.850  0.00  0.00    +0.000 A 
ATOM     17  C10 UNL     1     145.520 166.673 165.835  0.00  0.00    +0.000 A 
ATOM     18  C11 UNL     1     144.905 165.516 166.292  0.00  0.00    +0.000 A 
ATOM     19  C12 UNL     1     145.642 164.450 166.743  0.00  0.00    +0.000 A 
BRANCH  17  20
ATOM     20  N3  UNL     1     144.710 167.755 165.375  0.00  0.00    +0.000 N 
ATOM     21  H7  UNL     1     143.683 167.740 165.327  0.00  0.00    +0.000 HD
ATOM     22  H8  UNL     1     145.234 168.612 165.068  0.00  0.00    +0.000 HD
ENDBRANCH  17  20
ENDBRANCH  13  14
ENDBRANCH  12  13
ENDBRANCH   8  12
BRANCH  10  23
ATOM     23  C14 UNL     1     152.575 163.247 163.635  0.00  0.00    +0.000 C 
BRANCH  23  24
ATOM     24  C15 UNL     1     153.735 164.137 163.572  0.00  0.00    +0.000 A 
ATOM     25  C16 UNL     1     153.819 165.224 164.406  0.00  0.00    +0.000 A 
ATOM     26  C17 UNL     1     154.886 166.104 164.399  0.00  0.00    +0.000 A 
ATOM     27  C18 UNL     1     155.915 165.869 163.505  0.00  0.00    +0.000 A 
ATOM     28  C19 UNL     1     155.847 164.782 162.661  0.00  0.00    +0.000 A 
ATOM     29  C20 UNL     1     154.773 163.910 162.679  0.00  0.00    +0.000 A 
ENDBRANCH  23  24
ENDBRANCH  10  23
BRANCH  11  30
ATOM     30  C21 UNL     1     153.760 160.812 165.221  0.00  0.00    +0.000 C 
BRANCH  30  31
ATOM     31  C22 UNL     1     155.130 161.209 165.593  0.00  0.00    +0.000 C 
BRANCH  31  32
ATOM     32  N6  UNL     1     156.157 160.295 165.789  0.00  0.00    +0.000 NA
BRANCH  32  33
ATOM     33  C25 UNL     1     156.976 159.985 164.671  0.00  0.00    +0.000 C 
ATOM     34  C26 UNL     1     157.059 161.063 163.621  0.00  0.00    +0.000 C 
ENDBRANCH  32  33
BRANCH  32  35
ATOM     35  C23 UNL     1     156.148 159.412 166.879  0.00  0.00    +0.000 C 
BRANCH  35  36
ATOM     36  C24 UNL     1     155.802 157.980 166.523  0.00  0.00    +0.000 C 
BRANCH  36  37
ATOM     37  O3  UNL     1     154.540 157.618 166.908  0.00  0.00    +0.000 OA
ATOM     38  H26 UNL     1     154.529 156.923 167.624  0.00  0.00    +0.000 HD
ENDBRANCH  36  37
ENDBRANCH  35  36
ENDBRANCH  32  35
ENDBRANCH  31  32
ENDBRANCH  30  31
ENDBRANCH  11  30
BRANCH   3  39
ATOM     39  C27 UNL     1     151.045 160.047 170.013  0.00  0.00    +0.000 C 
BRANCH  39  40
ATOM     40  C28 UNL     1     150.235 158.809 169.824  0.00  0.00    +0.000 C 
ATOM     41  C29 UNL     1     151.148 157.632 170.189  0.00  0.00    +0.000 C 
ENDBRANCH  39  40
ENDBRANCH   3  39
TORSDOF 15
ENDMDL
MODEL 6
REMARK VINA RESULT:      -5.5      6.282      9.892
REMARK  Name = ./3D_structures\o63_MMV1634403_3D.pdb
REMARK  17 active torsions:
REMARK  status: ('A' for Active; 'I' for Inactive)
REMARK    1  A    between atoms: N1_3  and  C27_36
REMARK    2  A    between atoms: N2_8  and  C5_9
REMARK    3  A    between atoms: C5_9  and  C6_10
REMARK    4  A    between atoms: C6_10  and  C7_11
REMARK    5  A    between atoms: C10_14  and  N3_15
REMARK    6  A    between atoms: C13_19  and  C14_20
REMARK    7  A    between atoms: C14_20  and  C15_21
REMARK    8  A    between atoms: N5_27  and  C21_28
REMARK    9  A    between atoms: C21_28  and  C22_29
REMARK   10  A    between atoms: C22_29  and  N6_30
REMARK   11  A    between atoms: N6_30  and  C23_31
REMARK   12  A    between atoms: N6_30  and  C25_34
REMARK   13  A    between atoms: C23_31  and  C24_32
REMARK   14  A    between atoms: C24_32  and  O3_33
REMARK   15  A    between atoms: C25_34  and  C26_35
REMARK   16  A    between atoms: C27_36  and  C28_37
REMARK   17  A    between atoms: C28_37  and  C29_38
REMARK                            x       y       z     vdW  Elec       q    Type
REMARK                         _______ _______ _______ _____ _____    ______ ____
ROOT
ATOM      1  O1  UNL     1     150.910 164.915 165.039  0.00  0.00    +0.000 OA
ATOM      2  C1  UNL     1     151.323 163.895 165.649  0.00  0.00    +0.000 A 
ATOM      3  N1  UNL     1     152.242 163.110 165.052  0.00  0.00    +0.000 N 
ATOM      4  C2  UNL     1     152.684 162.028 165.690  0.00  0.00    +0.000 A 
ATOM      5  O2  UNL     1     153.537 161.329 165.106  0.00  0.00    +0.000 OA
ATOM      6  C3  UNL     1     152.251 161.650 166.955  0.00  0.00    +0.000 A 
ATOM      7  C4  UNL     1     151.307 162.506 167.509  0.00  0.00    +0.000 A 
ATOM      8  N2  UNL     1     150.860 163.596 166.868  0.00  0.00    +0.000 N 
ATOM      9  N4  UNL     1     151.031 162.017 168.702  0.00  0.00    +0.000 NA
ATOM     10  C13 UNL     1     151.773 160.893 168.896  0.00  0.00    +0.000 A 
ATOM     11  N5  UNL     1     152.545 160.652 167.796  0.00  0.00    +0.000 N 
ENDROOT
BRANCH   8  12
ATOM     12  C5  UNL     1     149.876 164.471 167.470  0.00  0.00    +0.000 C 
BRANCH  12  13
ATOM     13  C6  UNL     1     148.491 163.811 167.388  0.00  0.00    +0.000 C 
BRANCH  13  14
ATOM     14  C7  UNL     1     147.499 164.770 166.844  0.00  0.00    +0.000 A 
ATOM     15  C8  UNL     1     146.146 164.455 166.856  0.00  0.00    +0.000 A 
ATOM     16  C9  UNL     1     145.193 165.320 166.359  0.00  0.00    +0.000 A 
ATOM     17  C10 UNL     1     145.550 166.531 165.833  0.00  0.00    +0.000 A 
ATOM     18  C11 UNL     1     146.900 166.856 165.816  0.00  0.00    +0.000 A 
ATOM     19  C12 UNL     1     147.845 165.993 166.311  0.00  0.00    +0.000 A 
BRANCH  17  20
ATOM     20  N3  UNL     1     144.605 167.462 165.308  0.00  0.00    +0.000 N 
ATOM     21  H7  UNL     1     144.540 168.451 165.582  0.00  0.00    +0.000 HD
ATOM     22  H8  UNL     1     143.940 167.076 164.592  0.00  0.00    +0.000 HD
ENDBRANCH  17  20
ENDBRANCH  13  14
ENDBRANCH  12  13
ENDBRANCH   8  12
BRANCH  10  23
ATOM     23  C14 UNL     1     151.732 160.145 170.160  0.00  0.00    +0.000 C 
BRANCH  23  24
ATOM     24  C15 UNL     1     150.691 159.124 170.286  0.00  0.00    +0.000 A 
ATOM     25  C16 UNL     1     149.724 158.998 169.320  0.00  0.00    +0.000 A 
ATOM     26  C17 UNL     1     148.713 158.056 169.377  0.00  0.00    +0.000 A 
ATOM     27  C18 UNL     1     148.682 157.202 170.464  0.00  0.00    +0.000 A 
ATOM     28  C19 UNL     1     149.646 157.314 171.442  0.00  0.00    +0.000 A 
ATOM     29  C20 UNL     1     150.652 158.261 171.372  0.00  0.00    +0.000 A 
ENDBRANCH  23  24
ENDBRANCH  10  23
BRANCH  11  30
ATOM     30  C21 UNL     1     153.482 159.567 167.619  0.00  0.00    +0.000 C 
BRANCH  30  31
ATOM     31  C22 UNL     1     154.829 159.758 168.187  0.00  0.00    +0.000 C 
BRANCH  31  32
ATOM     32  N6  UNL     1     155.489 158.779 168.918  0.00  0.00    +0.000 NA
BRANCH  32  33
ATOM     33  C25 UNL     1     156.110 157.729 168.190  0.00  0.00    +0.000 C 
ATOM     34  C26 UNL     1     157.337 158.128 167.414  0.00  0.00    +0.000 C 
ENDBRANCH  32  33
BRANCH  32  35
ATOM     35  C23 UNL     1     155.221 158.583 170.281  0.00  0.00    +0.000 C 
BRANCH  35  36
ATOM     36  C24 UNL     1     156.159 157.612 170.971  0.00  0.00    +0.000 C 
BRANCH  36  37
ATOM     37  O3  UNL     1     157.240 158.222 171.547  0.00  0.00    +0.000 OA
ATOM     38  H26 UNL     1     157.300 159.197 171.340  0.00  0.00    +0.000 HD
ENDBRANCH  36  37
ENDBRANCH  35  36
ENDBRANCH  32  35
ENDBRANCH  31  32
ENDBRANCH  30  31
ENDBRANCH  11  30
BRANCH   3  39
ATOM     39  C27 UNL     1     152.719 163.481 163.744  0.00  0.00    +0.000 C 
BRANCH  39  40
ATOM     40  C28 UNL     1     153.868 164.433 163.737  0.00  0.00    +0.000 C 
ATOM     41  C29 UNL     1     154.830 163.943 162.648  0.00  0.00    +0.000 C 
ENDBRANCH  39  40
ENDBRANCH   3  39
TORSDOF 15
ENDMDL
MODEL 7
REMARK VINA RESULT:      -5.5      7.497     12.138
REMARK  Name = ./3D_structures\o63_MMV1634403_3D.pdb
REMARK  17 active torsions:
REMARK  status: ('A' for Active; 'I' for Inactive)
REMARK    1  A    between atoms: N1_3  and  C27_36
REMARK    2  A    between atoms: N2_8  and  C5_9
REMARK    3  A    between atoms: C5_9  and  C6_10
REMARK    4  A    between atoms: C6_10  and  C7_11
REMARK    5  A    between atoms: C10_14  and  N3_15
REMARK    6  A    between atoms: C13_19  and  C14_20
REMARK    7  A    between atoms: C14_20  and  C15_21
REMARK    8  A    between atoms: N5_27  and  C21_28
REMARK    9  A    between atoms: C21_28  and  C22_29
REMARK   10  A    between atoms: C22_29  and  N6_30
REMARK   11  A    between atoms: N6_30  and  C23_31
REMARK   12  A    between atoms: N6_30  and  C25_34
REMARK   13  A    between atoms: C23_31  and  C24_32
REMARK   14  A    between atoms: C24_32  and  O3_33
REMARK   15  A    between atoms: C25_34  and  C26_35
REMARK   16  A    between atoms: C27_36  and  C28_37
REMARK   17  A    between atoms: C28_37  and  C29_38
REMARK                            x       y       z     vdW  Elec       q    Type
REMARK                         _______ _______ _______ _____ _____    ______ ____
ROOT
ATOM      1  O1  UNL     1     147.790 164.879 170.550  0.00  0.00    +0.000 OA
ATOM      2  C1  UNL     1     148.854 164.490 170.002  0.00  0.00    +0.000 A 
ATOM      3  N1  UNL     1     150.017 165.073 170.358  0.00  0.00    +0.000 N 
ATOM      4  C2  UNL     1     151.149 164.669 169.783  0.00  0.00    +0.000 A 
ATOM      5  O2  UNL     1     152.203 165.230 170.141  0.00  0.00    +0.000 OA
ATOM      6  C3  UNL     1     151.207 163.666 168.823  0.00  0.00    +0.000 A 
ATOM      7  C4  UNL     1     149.974 163.110 168.508  0.00  0.00    +0.000 A 
ATOM      8  N2  UNL     1     148.833 163.516 169.085  0.00  0.00    +0.000 N 
ATOM      9  N4  UNL     1     150.216 162.173 167.613  0.00  0.00    +0.000 NA
ATOM     10  C13 UNL     1     151.554 162.137 167.370  0.00  0.00    +0.000 A 
ATOM     11  N5  UNL     1     152.189 163.079 168.129  0.00  0.00    +0.000 N 
ENDROOT
BRANCH   8  12
ATOM     12  C5  UNL     1     147.561 162.919 168.738  0.00  0.00    +0.000 C 
BRANCH  12  13
ATOM     13  C6  UNL     1     147.396 162.926 167.211  0.00  0.00    +0.000 C 
BRANCH  13  14
ATOM     14  C7  UNL     1     146.779 164.200 166.768  0.00  0.00    +0.000 A 
ATOM     15  C8  UNL     1     145.396 164.337 166.753  0.00  0.00    +0.000 A 
ATOM     16  C9  UNL     1     144.785 165.506 166.347  0.00  0.00    +0.000 A 
ATOM     17  C10 UNL     1     145.527 166.582 165.942  0.00  0.00    +0.000 A 
ATOM     18  C11 UNL     1     146.909 166.455 165.952  0.00  0.00    +0.000 A 
ATOM     19  C12 UNL     1     147.513 165.292 166.356  0.00  0.00    +0.000 A 
BRANCH  17  20
ATOM     20  N3  UNL     1     144.944 167.812 165.514  0.00  0.00    +0.000 N 
ATOM     21  H7  UNL     1     143.978 167.918 165.177  0.00  0.00    +0.000 HD
ATOM     22  H8  UNL     1     145.575 168.651 165.556  0.00  0.00    +0.000 HD
ENDBRANCH  17  20
ENDBRANCH  13  14
ENDBRANCH  12  13
ENDBRANCH   8  12
BRANCH  10  23
ATOM     23  C14 UNL     1     152.150 161.153 166.455  0.00  0.00    +0.000 C 
BRANCH  23  24
ATOM     24  C15 UNL     1     152.884 160.046 167.069  0.00  0.00    +0.000 A 
ATOM     25  C16 UNL     1     153.843 159.372 166.355  0.00  0.00    +0.000 A 
ATOM     26  C17 UNL     1     154.573 158.317 166.873  0.00  0.00    +0.000 A 
ATOM     27  C18 UNL     1     154.318 157.929 168.176  0.00  0.00    +0.000 A 
ATOM     28  C19 UNL     1     153.358 158.595 168.907  0.00  0.00    +0.000 A 
ATOM     29  C20 UNL     1     152.636 159.649 168.376  0.00  0.00    +0.000 A 
ENDBRANCH  23  24
ENDBRANCH  10  23
BRANCH  11  30
ATOM     30  C21 UNL     1     153.608 163.341 168.170  0.00  0.00    +0.000 C 
BRANCH  30  31
ATOM     31  C22 UNL     1     154.121 164.350 167.225  0.00  0.00    +0.000 C 
BRANCH  31  32
ATOM     32  N6  UNL     1     153.558 164.572 165.975  0.00  0.00    +0.000 NA
BRANCH  32  33
ATOM     33  C25 UNL     1     154.080 163.828 164.883  0.00  0.00    +0.000 C 
ATOM     34  C26 UNL     1     154.146 164.572 163.576  0.00  0.00    +0.000 C 
ENDBRANCH  32  33
BRANCH  32  35
ATOM     35  C23 UNL     1     152.824 165.737 165.702  0.00  0.00    +0.000 C 
BRANCH  35  36
ATOM     36  C24 UNL     1     151.321 165.559 165.760  0.00  0.00    +0.000 C 
BRANCH  36  37
ATOM     37  O3  UNL     1     150.701 165.805 164.565  0.00  0.00    +0.000 OA
ATOM     38  H26 UNL     1     151.339 165.994 163.821  0.00  0.00    +0.000 HD
ENDBRANCH  36  37
ENDBRANCH  35  36
ENDBRANCH  32  35
ENDBRANCH  31  32
ENDBRANCH  30  31
ENDBRANCH  11  30
BRANCH   3  39
ATOM     39  C27 UNL     1     149.990 166.109 171.359  0.00  0.00    +0.000 C 
BRANCH  39  40
ATOM     40  C28 UNL     1     149.975 167.502 170.826  0.00  0.00    +0.000 C 
ATOM     41  C29 UNL     1     150.729 168.365 171.845  0.00  0.00    +0.000 C 
ENDBRANCH  39  40
ENDBRANCH   3  39
TORSDOF 15
ENDMDL
MODEL 8
REMARK VINA RESULT:      -5.4      4.484      9.127
REMARK  Name = ./3D_structures\o63_MMV1634403_3D.pdb
REMARK  17 active torsions:
REMARK  status: ('A' for Active; 'I' for Inactive)
REMARK    1  A    between atoms: N1_3  and  C27_36
REMARK    2  A    between atoms: N2_8  and  C5_9
REMARK    3  A    between atoms: C5_9  and  C6_10
REMARK    4  A    between atoms: C6_10  and  C7_11
REMARK    5  A    between atoms: C10_14  and  N3_15
REMARK    6  A    between atoms: C13_19  and  C14_20
REMARK    7  A    between atoms: C14_20  and  C15_21
REMARK    8  A    between atoms: N5_27  and  C21_28
REMARK    9  A    between atoms: C21_28  and  C22_29
REMARK   10  A    between atoms: C22_29  and  N6_30
REMARK   11  A    between atoms: N6_30  and  C23_31
REMARK   12  A    between atoms: N6_30  and  C25_34
REMARK   13  A    between atoms: C23_31  and  C24_32
REMARK   14  A    between atoms: C24_32  and  O3_33
REMARK   15  A    between atoms: C25_34  and  C26_35
REMARK   16  A    between atoms: C27_36  and  C28_37
REMARK   17  A    between atoms: C28_37  and  C29_38
REMARK                            x       y       z     vdW  Elec       q    Type
REMARK                         _______ _______ _______ _____ _____    ______ ____
ROOT
ATOM      1  O1  UNL     1     154.429 160.906 173.248  0.00  0.00    +0.000 OA
ATOM      2  C1  UNL     1     153.906 160.914 172.104  0.00  0.00    +0.000 A 
ATOM      3  N1  UNL     1     152.733 161.557 171.932  0.00  0.00    +0.000 N 
ATOM      4  C2  UNL     1     152.171 161.569 170.724  0.00  0.00    +0.000 A 
ATOM      5  O2  UNL     1     151.089 162.177 170.604  0.00  0.00    +0.000 OA
ATOM      6  C3  UNL     1     152.728 160.951 169.611  0.00  0.00    +0.000 A 
ATOM      7  C4  UNL     1     153.935 160.311 169.862  0.00  0.00    +0.000 A 
ATOM      8  N2  UNL     1     154.502 160.297 171.078  0.00  0.00    +0.000 N 
ATOM      9  N4  UNL     1     154.327 159.808 168.708  0.00  0.00    +0.000 NA
ATOM     10  C13 UNL     1     153.401 160.119 167.761  0.00  0.00    +0.000 A 
ATOM     11  N5  UNL     1     152.385 160.839 168.322  0.00  0.00    +0.000 N 
ENDROOT
BRANCH   8  12
ATOM     12  C5  UNL     1     155.761 159.623 171.311  0.00  0.00    +0.000 C 
BRANCH  12  13
ATOM     13  C6  UNL     1     156.918 160.579 170.983  0.00  0.00    +0.000 C 
BRANCH  13  14
ATOM     14  C7  UNL     1     157.830 159.958 169.991  0.00  0.00    +0.000 A 
ATOM     15  C8  UNL     1     157.685 158.618 169.654  0.00  0.00    +0.000 A 
ATOM     16  C9  UNL     1     158.514 158.005 168.737  0.00  0.00    +0.000 A 
ATOM     17  C10 UNL     1     159.517 158.702 168.121  0.00  0.00    +0.000 A 
ATOM     18  C11 UNL     1     159.671 160.041 168.451  0.00  0.00    +0.000 A 
ATOM     19  C12 UNL     1     158.845 160.648 169.363  0.00  0.00    +0.000 A 
BRANCH  17  20
ATOM     20  N3  UNL     1     160.401 158.115 167.166  0.00  0.00    +0.000 N 
ATOM     21  H7  UNL     1     160.176 157.298 166.583  0.00  0.00    +0.000 HD
ATOM     22  H8  UNL     1     161.341 158.574 167.078  0.00  0.00    +0.000 HD
ENDBRANCH  17  20
ENDBRANCH  13  14
ENDBRANCH  12  13
ENDBRANCH   8  12
BRANCH  10  23
ATOM     23  C14 UNL     1     153.579 159.746 166.350  0.00  0.00    +0.000 C 
BRANCH  23  24
ATOM     24  C15 UNL     1     154.844 159.101 165.996  0.00  0.00    +0.000 A 
ATOM     25  C16 UNL     1     154.990 157.743 166.129  0.00  0.00    +0.000 A 
ATOM     26  C17 UNL     1     156.157 157.071 165.812  0.00  0.00    +0.000 A 
ATOM     27  C18 UNL     1     157.225 157.812 165.339  0.00  0.00    +0.000 A 
ATOM     28  C19 UNL     1     157.095 159.177 165.199  0.00  0.00    +0.000 A 
ATOM     29  C20 UNL     1     155.922 159.836 165.519  0.00  0.00    +0.000 A 
ENDBRANCH  23  24
ENDBRANCH  10  23
BRANCH  11  30
ATOM     30  C21 UNL     1     151.225 161.370 167.645  0.00  0.00    +0.000 C 
BRANCH  30  31
ATOM     31  C22 UNL     1     151.290 162.784 167.236  0.00  0.00    +0.000 C 
BRANCH  31  32
ATOM     32  N6  UNL     1     152.469 163.409 166.852  0.00  0.00    +0.000 NA
BRANCH  32  33
ATOM     33  C25 UNL     1     152.949 164.460 167.679  0.00  0.00    +0.000 C 
ATOM     34  C26 UNL     1     152.018 164.878 168.786  0.00  0.00    +0.000 C 
ENDBRANCH  32  33
BRANCH  32  35
ATOM     35  C23 UNL     1     152.945 163.322 165.535  0.00  0.00    +0.000 C 
BRANCH  35  36
ATOM     36  C24 UNL     1     152.006 163.890 164.490  0.00  0.00    +0.000 C 
BRANCH  36  37
ATOM     37  O3  UNL     1     151.953 163.140 163.347  0.00  0.00    +0.000 OA
ATOM     38  H26 UNL     1     152.142 162.172 163.500  0.00  0.00    +0.000 HD
ENDBRANCH  36  37
ENDBRANCH  35  36
ENDBRANCH  32  35
ENDBRANCH  31  32
ENDBRANCH  30  31
ENDBRANCH  11  30
BRANCH   3  39
ATOM     39  C27 UNL     1     152.137 162.216 173.064  0.00  0.00    +0.000 C 
BRANCH  39  40
ATOM     40  C28 UNL     1     152.573 163.627 173.276  0.00  0.00    +0.000 C 
ATOM     41  C29 UNL     1     151.299 164.480 173.279  0.00  0.00    +0.000 C 
ENDBRANCH  39  40
ENDBRANCH   3  39
TORSDOF 15
ENDMDL
MODEL 9
REMARK VINA RESULT:      -5.4      2.017      5.657
REMARK  Name = ./3D_structures\o63_MMV1634403_3D.pdb
REMARK  17 active torsions:
REMARK  status: ('A' for Active; 'I' for Inactive)
REMARK    1  A    between atoms: N1_3  and  C27_36
REMARK    2  A    between atoms: N2_8  and  C5_9
REMARK    3  A    between atoms: C5_9  and  C6_10
REMARK    4  A    between atoms: C6_10  and  C7_11
REMARK    5  A    between atoms: C10_14  and  N3_15
REMARK    6  A    between atoms: C13_19  and  C14_20
REMARK    7  A    between atoms: C14_20  and  C15_21
REMARK    8  A    between atoms: N5_27  and  C21_28
REMARK    9  A    between atoms: C21_28  and  C22_29
REMARK   10  A    between atoms: C22_29  and  N6_30
REMARK   11  A    between atoms: N6_30  and  C23_31
REMARK   12  A    between atoms: N6_30  and  C25_34
REMARK   13  A    between atoms: C23_31  and  C24_32
REMARK   14  A    between atoms: C24_32  and  O3_33
REMARK   15  A    between atoms: C25_34  and  C26_35
REMARK   16  A    between atoms: C27_36  and  C28_37
REMARK   17  A    between atoms: C28_37  and  C29_38
REMARK                            x       y       z     vdW  Elec       q    Type
REMARK                         _______ _______ _______ _____ _____    ______ ____
ROOT
ATOM      1  O1  UNL     1     157.548 155.282 163.712  0.00  0.00    +0.000 OA
ATOM      2  C1  UNL     1     158.280 156.015 164.426  0.00  0.00    +0.000 A 
ATOM      3  N1  UNL     1     159.563 156.204 164.060  0.00  0.00    +0.000 N 
ATOM      4  C2  UNL     1     160.346 156.978 164.810  0.00  0.00    +0.000 A 
ATOM      5  O2  UNL     1     161.525 157.132 164.435  0.00  0.00    +0.000 OA
ATOM      6  C3  UNL     1     159.915 157.614 165.968  0.00  0.00    +0.000 A 
ATOM      7  C4  UNL     1     158.583 157.376 166.283  0.00  0.00    +0.000 A 
ATOM      8  N2  UNL     1     157.793 156.597 165.529  0.00  0.00    +0.000 N 
ATOM      9  N4  UNL     1     158.340 158.067 167.380  0.00  0.00    +0.000 NA
ATOM     10  C13 UNL     1     159.477 158.718 167.745  0.00  0.00    +0.000 A 
ATOM     11  N5  UNL     1     160.478 158.436 166.860  0.00  0.00    +0.000 N 
ENDROOT
BRANCH   8  12
ATOM     12  C5  UNL     1     156.408 156.367 165.880  0.00  0.00    +0.000 C 
BRANCH  12  13
ATOM     13  C6  UNL     1     155.595 157.641 165.606  0.00  0.00    +0.000 C 
BRANCH  13  14
ATOM     14  C7  UNL     1     154.840 158.038 166.819  0.00  0.00    +0.000 A 
ATOM     15  C8  UNL     1     154.041 159.175 166.803  0.00  0.00    +0.000 A 
ATOM     16  C9  UNL     1     153.325 159.577 167.911  0.00  0.00    +0.000 A 
ATOM     17  C10 UNL     1     153.375 158.862 169.077  0.00  0.00    +0.000 A 
ATOM     18  C11 UNL     1     154.170 157.724 169.104  0.00  0.00    +0.000 A 
ATOM     19  C12 UNL     1     154.882 157.328 168.000  0.00  0.00    +0.000 A 
BRANCH  17  20
ATOM     20  N3  UNL     1     152.653 159.234 170.250  0.00  0.00    +0.000 N 
ATOM     21  H7  UNL     1     153.057 159.732 171.055  0.00  0.00    +0.000 HD
ATOM     22  H8  UNL     1     151.638 158.963 170.262  0.00  0.00    +0.000 HD
ENDBRANCH  17  20
ENDBRANCH  13  14
ENDBRANCH  12  13
ENDBRANCH   8  12
BRANCH  10  23
ATOM     23  C14 UNL     1     159.515 159.622 168.904  0.00  0.00    +0.000 C 
BRANCH  23  24
ATOM     24  C15 UNL     1     158.357 159.594 169.797  0.00  0.00    +0.000 A 
ATOM     25  C16 UNL     1     157.459 160.633 169.799  0.00  0.00    +0.000 A 
ATOM     26  C17 UNL     1     156.345 160.671 170.617  0.00  0.00    +0.000 A 
ATOM     27  C18 UNL     1     156.131 159.605 171.473  0.00  0.00    +0.000 A 
ATOM     28  C19 UNL     1     157.022 158.554 171.483  0.00  0.00    +0.000 A 
ATOM     29  C20 UNL     1     158.132 158.529 170.659  0.00  0.00    +0.000 A 
ENDBRANCH  23  24
ENDBRANCH  10  23
BRANCH  11  30
ATOM     30  C21 UNL     1     161.829 158.948 166.892  0.00  0.00    +0.000 C 
BRANCH  30  31
ATOM     31  C22 UNL     1     162.856 158.064 167.473  0.00  0.00    +0.000 C 
BRANCH  31  32
ATOM     32  N6  UNL     1     164.199 158.408 167.546  0.00  0.00    +0.000 NA
BRANCH  32  33
ATOM     33  C25 UNL     1     165.011 158.115 166.418  0.00  0.00    +0.000 C 
ATOM     34  C26 UNL     1     164.745 156.781 165.770  0.00  0.00    +0.000 C 
ENDBRANCH  32  33
BRANCH  32  35
ATOM     35  C23 UNL     1     164.825 158.640 168.781  0.00  0.00    +0.000 C 
BRANCH  35  36
ATOM     36  C24 UNL     1     166.321 158.400 168.780  0.00  0.00    +0.000 C 
BRANCH  36  37
ATOM     37  O3  UNL     1     166.791 157.914 169.969  0.00  0.00    +0.000 OA
ATOM     38  H26 UNL     1     166.923 156.924 169.968  0.00  0.00    +0.000 HD
ENDBRANCH  36  37
ENDBRANCH  35  36
ENDBRANCH  32  35
ENDBRANCH  31  32
ENDBRANCH  30  31
ENDBRANCH  11  30
BRANCH   3  39
ATOM     39  C27 UNL     1     160.037 155.567 162.858  0.00  0.00    +0.000 C 
BRANCH  39  40
ATOM     40  C28 UNL     1     160.065 156.439 161.648  0.00  0.00    +0.000 C 
ATOM     41  C29 UNL     1     159.021 155.870 160.679  0.00  0.00    +0.000 C 
ENDBRANCH  39  40
ENDBRANCH   3  39
TORSDOF 15
ENDMDL
