MODEL 1
REMARK VINA RESULT:      -6.3      0.000      0.000
REMARK  Name = ./3D_structures\o64_MMV1634390_3D.pdb
REMARK  8 active torsions:
REMARK  status: ('A' for Active; 'I' for Inactive)
REMARK    1  A    between atoms: C1_2  and  O2_3
REMARK    2  A    between atoms: O2_3  and  C2_4
REMARK    3  A    between atoms: N1_5  and  C3_6
REMARK    4  A    between atoms: C3_6  and  C4_7
REMARK    5  A    between atoms: C7_10  and  C16_23
REMARK    6  A    between atoms: N4_20  and  C14_21
REMARK    7  A    between atoms: C14_21  and  C15_22
REMARK    8  A    between atoms: C18_25  and  C21_29
REMARK                            x       y       z     vdW  Elec       q    Type
REMARK                         _______ _______ _______ _____ _____    ______ ____
ROOT
ATOM      1  C4  UNL     1     157.844 155.975 164.825  0.00  0.00    +0.000 A 
ATOM      2  C5  UNL     1     156.588 156.176 165.315  0.00  0.00    +0.000 A 
ATOM      3  C6  UNL     1     156.338 156.999 166.419  0.00  0.00    +0.000 A 
ATOM      4  C7  UNL     1     157.351 157.638 167.057  0.00  0.00    +0.000 A 
ATOM      5  C8  UNL     1     158.616 157.457 166.593  0.00  0.00    +0.000 A 
ATOM      6  C9  UNL     1     159.701 158.066 167.202  0.00  0.00    +0.000 A 
ATOM      7  C10 UNL     1     160.989 157.850 166.706  0.00  0.00    +0.000 A 
ATOM      8  N2  UNL     1     161.173 157.058 165.650  0.00  0.00    +0.000 NA
ATOM      9  C11 UNL     1     160.138 156.439 165.021  0.00  0.00    +0.000 A 
ATOM     10  C12 UNL     1     158.881 156.649 165.504  0.00  0.00    +0.000 A 
ATOM     11  N3  UNL     1     162.054 158.509 167.382  0.00  0.00    +0.000 N 
ATOM     12  C13 UNL     1     163.404 158.333 166.928  0.00  0.00    +0.000 C 
ATOM     13  O3  UNL     1     163.565 157.578 165.923  0.00  0.00    +0.000 OA
ATOM     14  N4  UNL     1     164.505 158.958 167.555  0.00  0.00    +0.000 N 
ATOM     15  H11 UNL     1     161.888 159.122 168.205  0.00  0.00    +0.000 HD
ATOM     16  H12 UNL     1     164.353 159.574 168.378  0.00  0.00    +0.000 HD
ENDROOT
BRANCH   4  17
ATOM     17  C16 UNL     1     157.087 158.526 168.181  0.00  0.00    +0.000 A 
ATOM     18  C17 UNL     1     156.978 158.122 169.486  0.00  0.00    +0.000 A 
ATOM     19  C18 UNL     1     156.714 158.993 170.513  0.00  0.00    +0.000 A 
ATOM     20  N5  UNL     1     156.556 160.298 170.244  0.00  0.00    +0.000 NA
ATOM     21  C19 UNL     1     156.657 160.746 168.960  0.00  0.00    +0.000 A 
ATOM     22  C20 UNL     1     156.918 159.881 167.937  0.00  0.00    +0.000 A 
ATOM     23  C21 UNL     1     156.599 158.541 171.918  0.00  0.00    +0.000 C 
ENDBRANCH   4  17
BRANCH  14  24
ATOM     24  C14 UNL     1     165.842 158.736 167.044  0.00  0.00    +0.000 C 
ATOM     25  C15 UNL     1     166.821 158.494 168.160  0.00  0.00    +0.000 C 
ENDBRANCH  14  24
BRANCH   1  26
ATOM     26  C3  UNL     1     158.145 155.129 163.679  0.00  0.00    +0.000 C 
BRANCH  26  29
ATOM     27  O1  UNL     1     159.386 152.896 164.635  0.00  0.00    +0.000 OA
ATOM     28  C1  UNL     1     158.214 152.740 164.209  0.00  0.00    +0.000 C 
ATOM     29  N1  UNL     1     157.495 153.878 163.687  0.00  0.00    +0.000 N 
ATOM     30  H4  UNL     1     156.555 153.705 163.356  0.00  0.00    +0.000 HD
BRANCH  28  31
ATOM     31  O2  UNL     1     157.619 151.482 164.240  0.00  0.00    +0.000 OA
ATOM     32  C2  UNL     1     156.196 151.388 164.117  0.00  0.00    +0.000 C 
ENDBRANCH  28  31
ENDBRANCH  26  29
ENDBRANCH   1  26
TORSDOF 5
ENDMDL
MODEL 2
REMARK VINA RESULT:      -6.3      7.456     11.138
REMARK  Name = ./3D_structures\o64_MMV1634390_3D.pdb
REMARK  8 active torsions:
REMARK  status: ('A' for Active; 'I' for Inactive)
REMARK    1  A    between atoms: C1_2  and  O2_3
REMARK    2  A    between atoms: O2_3  and  C2_4
REMARK    3  A    between atoms: N1_5  and  C3_6
REMARK    4  A    between atoms: C3_6  and  C4_7
REMARK    5  A    between atoms: C7_10  and  C16_23
REMARK    6  A    between atoms: N4_20  and  C14_21
REMARK    7  A    between atoms: C14_21  and  C15_22
REMARK    8  A    between atoms: C18_25  and  C21_29
REMARK                            x       y       z     vdW  Elec       q    Type
REMARK                         _______ _______ _______ _____ _____    ______ ____
ROOT
ATOM      1  C4  UNL     1     151.138 161.041 168.774  0.00  0.00    +0.000 A 
ATOM      2  C5  UNL     1     152.272 161.561 168.225  0.00  0.00    +0.000 A 
ATOM      3  C6  UNL     1     153.461 160.830 168.129  0.00  0.00    +0.000 A 
ATOM      4  C7  UNL     1     153.535 159.555 168.588  0.00  0.00    +0.000 A 
ATOM      5  C8  UNL     1     152.422 159.007 169.143  0.00  0.00    +0.000 A 
ATOM      6  C9  UNL     1     152.428 157.716 169.644  0.00  0.00    +0.000 A 
ATOM      7  C10 UNL     1     151.268 157.188 170.218  0.00  0.00    +0.000 A 
ATOM      8  N2  UNL     1     150.160 157.925 170.283  0.00  0.00    +0.000 NA
ATOM      9  C11 UNL     1     150.109 159.197 169.804  0.00  0.00    +0.000 A 
ATOM     10  C12 UNL     1     151.240 159.714 169.244  0.00  0.00    +0.000 A 
ATOM     11  N3  UNL     1     151.349 155.856 170.711  0.00  0.00    +0.000 N 
ATOM     12  C13 UNL     1     150.197 155.247 171.314  0.00  0.00    +0.000 C 
ATOM     13  O3  UNL     1     149.150 155.959 171.369  0.00  0.00    +0.000 OA
ATOM     14  N4  UNL     1     150.211 153.930 171.823  0.00  0.00    +0.000 N 
ATOM     15  H11 UNL     1     152.224 155.298 170.651  0.00  0.00    +0.000 HD
ATOM     16  H12 UNL     1     151.079 153.361 171.768  0.00  0.00    +0.000 HD
ENDROOT
BRANCH   4  17
ATOM     17  C16 UNL     1     154.761 158.780 168.452  0.00  0.00    +0.000 A 
ATOM     18  C17 UNL     1     155.848 158.887 169.281  0.00  0.00    +0.000 A 
ATOM     19  C18 UNL     1     156.990 158.145 169.107  0.00  0.00    +0.000 A 
ATOM     20  N5  UNL     1     157.059 157.274 168.088  0.00  0.00    +0.000 NA
ATOM     21  C19 UNL     1     156.002 157.134 167.239  0.00  0.00    +0.000 A 
ATOM     22  C20 UNL     1     154.866 157.871 167.410  0.00  0.00    +0.000 A 
ATOM     23  C21 UNL     1     158.155 158.272 170.011  0.00  0.00    +0.000 C 
ENDBRANCH   4  17
BRANCH  14  24
ATOM     24  C14 UNL     1     149.011 153.378 172.418  0.00  0.00    +0.000 C 
ATOM     25  C15 UNL     1     148.427 152.287 171.562  0.00  0.00    +0.000 C 
ENDBRANCH  14  24
BRANCH   1  26
ATOM     26  C3  UNL     1     149.882 161.767 168.891  0.00  0.00    +0.000 C 
BRANCH  26  29
ATOM     27  O1  UNL     1     147.184 162.132 169.065  0.00  0.00    +0.000 OA
ATOM     28  C1  UNL     1     147.642 161.910 167.916  0.00  0.00    +0.000 C 
ATOM     29  N1  UNL     1     149.061 161.706 167.747  0.00  0.00    +0.000 N 
ATOM     30  H4  UNL     1     149.383 161.531 166.804  0.00  0.00    +0.000 HD
BRANCH  28  31
ATOM     31  O2  UNL     1     146.786 161.860 166.818  0.00  0.00    +0.000 OA
ATOM     32  C2  UNL     1     145.815 162.897 166.651  0.00  0.00    +0.000 C 
ENDBRANCH  28  31
ENDBRANCH  26  29
ENDBRANCH   1  26
TORSDOF 5
ENDMDL
MODEL 3
REMARK VINA RESULT:      -6.2      1.813      6.638
REMARK  Name = ./3D_structures\o64_MMV1634390_3D.pdb
REMARK  8 active torsions:
REMARK  status: ('A' for Active; 'I' for Inactive)
REMARK    1  A    between atoms: C1_2  and  O2_3
REMARK    2  A    between atoms: O2_3  and  C2_4
REMARK    3  A    between atoms: N1_5  and  C3_6
REMARK    4  A    between atoms: C3_6  and  C4_7
REMARK    5  A    between atoms: C7_10  and  C16_23
REMARK    6  A    between atoms: N4_20  and  C14_21
REMARK    7  A    between atoms: C14_21  and  C15_22
REMARK    8  A    between atoms: C18_25  and  C21_29
REMARK                            x       y       z     vdW  Elec       q    Type
REMARK                         _______ _______ _______ _____ _____    ______ ____
ROOT
ATOM      1  C4  UNL     1     160.770 158.662 166.743  0.00  0.00    +0.000 A 
ATOM      2  C5  UNL     1     160.333 159.465 167.754  0.00  0.00    +0.000 A 
ATOM      3  C6  UNL     1     159.049 159.352 168.298  0.00  0.00    +0.000 A 
ATOM      4  C7  UNL     1     158.173 158.424 167.833  0.00  0.00    +0.000 A 
ATOM      5  C8  UNL     1     158.579 157.609 166.824  0.00  0.00    +0.000 A 
ATOM      6  C9  UNL     1     157.734 156.650 166.290  0.00  0.00    +0.000 A 
ATOM      7  C10 UNL     1     158.179 155.835 165.246  0.00  0.00    +0.000 A 
ATOM      8  N2  UNL     1     159.413 155.982 164.764  0.00  0.00    +0.000 NA
ATOM      9  C11 UNL     1     160.275 156.911 165.257  0.00  0.00    +0.000 A 
ATOM     10  C12 UNL     1     159.842 157.707 166.276  0.00  0.00    +0.000 A 
ATOM     11  N3  UNL     1     157.258 154.872 164.748  0.00  0.00    +0.000 N 
ATOM     12  C13 UNL     1     157.646 154.001 163.675  0.00  0.00    +0.000 C 
ATOM     13  O3  UNL     1     158.821 154.151 163.227  0.00  0.00    +0.000 OA
ATOM     14  N4  UNL     1     156.779 153.024 163.137  0.00  0.00    +0.000 N 
ATOM     15  H11 UNL     1     156.299 154.774 165.138  0.00  0.00    +0.000 HD
ATOM     16  H12 UNL     1     155.818 152.916 163.518  0.00  0.00    +0.000 HD
ENDROOT
BRANCH   4  17
ATOM     17  C16 UNL     1     156.851 158.280 168.426  0.00  0.00    +0.000 A 
ATOM     18  C17 UNL     1     155.717 158.898 167.967  0.00  0.00    +0.000 A 
ATOM     19  C18 UNL     1     154.492 158.743 168.566  0.00  0.00    +0.000 A 
ATOM     20  N5  UNL     1     154.384 157.955 169.647  0.00  0.00    +0.000 NA
ATOM     21  C19 UNL     1     155.486 157.319 170.139  0.00  0.00    +0.000 A 
ATOM     22  C20 UNL     1     156.705 157.473 169.545  0.00  0.00    +0.000 A 
ATOM     23  C21 UNL     1     153.277 159.417 168.058  0.00  0.00    +0.000 C 
ENDBRANCH   4  17
BRANCH  14  24
ATOM     24  C14 UNL     1     157.236 152.178 162.054  0.00  0.00    +0.000 C 
ATOM     25  C15 UNL     1     156.129 151.296 161.543  0.00  0.00    +0.000 C 
ENDBRANCH  14  24
BRANCH   1  26
ATOM     26  C3  UNL     1     162.098 158.748 166.151  0.00  0.00    +0.000 C 
BRANCH  26  29
ATOM     27  O1  UNL     1     163.373 156.691 167.409  0.00  0.00    +0.000 OA
ATOM     28  C1  UNL     1     163.766 157.849 167.700  0.00  0.00    +0.000 C 
ATOM     29  N1  UNL     1     163.136 158.987 167.073  0.00  0.00    +0.000 N 
ATOM     30  H4  UNL     1     163.485 159.899 167.338  0.00  0.00    +0.000 HD
BRANCH  28  31
ATOM     31  O2  UNL     1     164.796 158.030 168.619  0.00  0.00    +0.000 OA
ATOM     32  C2  UNL     1     165.286 159.353 168.856  0.00  0.00    +0.000 C 
ENDBRANCH  28  31
ENDBRANCH  26  29
ENDBRANCH   1  26
TORSDOF 5
ENDMDL
MODEL 4
REMARK VINA RESULT:      -6.1      2.582      6.032
REMARK  Name = ./3D_structures\o64_MMV1634390_3D.pdb
REMARK  8 active torsions:
REMARK  status: ('A' for Active; 'I' for Inactive)
REMARK    1  A    between atoms: C1_2  and  O2_3
REMARK    2  A    between atoms: O2_3  and  C2_4
REMARK    3  A    between atoms: N1_5  and  C3_6
REMARK    4  A    between atoms: C3_6  and  C4_7
REMARK    5  A    between atoms: C7_10  and  C16_23
REMARK    6  A    between atoms: N4_20  and  C14_21
REMARK    7  A    between atoms: C14_21  and  C15_22
REMARK    8  A    between atoms: C18_25  and  C21_29
REMARK                            x       y       z     vdW  Elec       q    Type
REMARK                         _______ _______ _______ _____ _____    ______ ____
ROOT
ATOM      1  C4  UNL     1     157.490 158.262 167.529  0.00  0.00    +0.000 A 
ATOM      2  C5  UNL     1     156.448 157.485 167.116  0.00  0.00    +0.000 A 
ATOM      3  C6  UNL     1     156.595 156.488 166.146  0.00  0.00    +0.000 A 
ATOM      4  C7  UNL     1     157.800 156.251 165.566  0.00  0.00    +0.000 A 
ATOM      5  C8  UNL     1     158.859 157.010 165.955  0.00  0.00    +0.000 A 
ATOM      6  C9  UNL     1     160.114 156.833 165.396  0.00  0.00    +0.000 A 
ATOM      7  C10 UNL     1     161.179 157.637 165.811  0.00  0.00    +0.000 A 
ATOM      8  N2  UNL     1     160.986 158.572 166.741  0.00  0.00    +0.000 NA
ATOM      9  C11 UNL     1     159.771 158.781 167.315  0.00  0.00    +0.000 A 
ATOM     10  C12 UNL     1     158.732 157.997 166.911  0.00  0.00    +0.000 A 
ATOM     11  N3  UNL     1     162.439 157.399 165.194  0.00  0.00    +0.000 N 
ATOM     12  C13 UNL     1     163.578 158.187 165.570  0.00  0.00    +0.000 C 
ATOM     13  O3  UNL     1     163.381 159.072 166.455  0.00  0.00    +0.000 OA
ATOM     14  N4  UNL     1     164.855 158.000 164.997  0.00  0.00    +0.000 N 
ATOM     15  H11 UNL     1     162.567 156.664 164.470  0.00  0.00    +0.000 HD
ATOM     16  H12 UNL     1     164.997 157.269 164.272  0.00  0.00    +0.000 HD
ENDROOT
BRANCH   4  17
ATOM     17  C16 UNL     1     157.962 155.187 164.585  0.00  0.00    +0.000 A 
ATOM     18  C17 UNL     1     158.465 153.942 164.858  0.00  0.00    +0.000 A 
ATOM     19  C18 UNL     1     158.613 152.973 163.897  0.00  0.00    +0.000 A 
ATOM     20  N5  UNL     1     158.253 153.241 162.633  0.00  0.00    +0.000 NA
ATOM     21  C19 UNL     1     157.747 154.467 162.315  0.00  0.00    +0.000 A 
ATOM     22  C20 UNL     1     157.600 155.432 163.268  0.00  0.00    +0.000 A 
ATOM     23  C21 UNL     1     159.159 151.633 164.209  0.00  0.00    +0.000 C 
ENDBRANCH   4  17
BRANCH  14  24
ATOM     24  C14 UNL     1     165.962 158.832 165.423  0.00  0.00    +0.000 C 
ATOM     25  C15 UNL     1     166.743 158.177 166.531  0.00  0.00    +0.000 C 
ENDBRANCH  14  24
BRANCH   1  26
ATOM     26  C3  UNL     1     157.378 159.308 168.535  0.00  0.00    +0.000 C 
BRANCH  26  29
ATOM     27  O1  UNL     1     158.569 158.270 170.758  0.00  0.00    +0.000 OA
ATOM     28  C1  UNL     1     157.322 158.408 170.810  0.00  0.00    +0.000 C 
ATOM     29  N1  UNL     1     156.622 158.950 169.670  0.00  0.00    +0.000 N 
ATOM     30  H4  UNL     1     155.619 159.042 169.757  0.00  0.00    +0.000 HD
BRANCH  28  31
ATOM     31  O2  UNL     1     156.622 158.038 171.956  0.00  0.00    +0.000 OA
ATOM     32  C2  UNL     1     155.954 159.051 172.715  0.00  0.00    +0.000 C 
ENDBRANCH  28  31
ENDBRANCH  26  29
ENDBRANCH   1  26
TORSDOF 5
ENDMDL
MODEL 5
REMARK VINA RESULT:      -6.1      2.363      5.999
REMARK  Name = ./3D_structures\o64_MMV1634390_3D.pdb
REMARK  8 active torsions:
REMARK  status: ('A' for Active; 'I' for Inactive)
REMARK    1  A    between atoms: C1_2  and  O2_3
REMARK    2  A    between atoms: O2_3  and  C2_4
REMARK    3  A    between atoms: N1_5  and  C3_6
REMARK    4  A    between atoms: C3_6  and  C4_7
REMARK    5  A    between atoms: C7_10  and  C16_23
REMARK    6  A    between atoms: N4_20  and  C14_21
REMARK    7  A    between atoms: C14_21  and  C15_22
REMARK    8  A    between atoms: C18_25  and  C21_29
REMARK                            x       y       z     vdW  Elec       q    Type
REMARK                         _______ _______ _______ _____ _____    ______ ____
ROOT
ATOM      1  C4  UNL     1     158.480 156.378 165.111  0.00  0.00    +0.000 A 
ATOM      2  C5  UNL     1     159.706 156.316 164.520  0.00  0.00    +0.000 A 
ATOM      3  C6  UNL     1     160.841 156.910 165.083  0.00  0.00    +0.000 A 
ATOM      4  C7  UNL     1     160.765 157.583 166.260  0.00  0.00    +0.000 A 
ATOM      5  C8  UNL     1     159.555 157.664 166.874  0.00  0.00    +0.000 A 
ATOM      6  C9  UNL     1     159.399 158.347 168.070  0.00  0.00    +0.000 A 
ATOM      7  C10 UNL     1     158.140 158.420 168.670  0.00  0.00    +0.000 A 
ATOM      8  N2  UNL     1     157.091 157.835 168.093  0.00  0.00    +0.000 NA
ATOM      9  C11 UNL     1     157.197 157.156 166.920  0.00  0.00    +0.000 A 
ATOM     10  C12 UNL     1     158.426 157.084 166.333  0.00  0.00    +0.000 A 
ATOM     11  N3  UNL     1     158.056 159.137 169.896  0.00  0.00    +0.000 N 
ATOM     12  C13 UNL     1     156.794 159.254 170.569  0.00  0.00    +0.000 C 
ATOM     13  O3  UNL     1     155.805 158.693 170.010  0.00  0.00    +0.000 OA
ATOM     14  N4  UNL     1     156.643 159.951 171.788  0.00  0.00    +0.000 N 
ATOM     15  H11 UNL     1     158.887 159.587 170.329  0.00  0.00    +0.000 HD
ATOM     16  H12 UNL     1     157.466 160.405 172.232  0.00  0.00    +0.000 HD
ENDROOT
BRANCH   4  17
ATOM     17  C16 UNL     1     161.953 158.168 166.867  0.00  0.00    +0.000 A 
ATOM     18  C17 UNL     1     162.221 159.510 166.923  0.00  0.00    +0.000 A 
ATOM     19  C18 UNL     1     163.363 160.016 167.494  0.00  0.00    +0.000 A 
ATOM     20  N5  UNL     1     164.261 159.173 168.024  0.00  0.00    +0.000 NA
ATOM     21  C19 UNL     1     164.036 157.829 167.992  0.00  0.00    +0.000 A 
ATOM     22  C20 UNL     1     162.902 157.324 167.424  0.00  0.00    +0.000 A 
ATOM     23  C21 UNL     1     163.638 161.469 167.547  0.00  0.00    +0.000 C 
ENDBRANCH   4  17
BRANCH  14  24
ATOM     24  C14 UNL     1     155.339 160.030 172.414  0.00  0.00    +0.000 C 
ATOM     25  C15 UNL     1     155.436 159.863 173.906  0.00  0.00    +0.000 C 
ENDBRANCH  14  24
BRANCH   1  26
ATOM     26  C3  UNL     1     157.277 155.773 164.558  0.00  0.00    +0.000 C 
BRANCH  26  29
ATOM     27  O1  UNL     1     157.284 155.285 161.875  0.00  0.00    +0.000 OA
ATOM     28  C1  UNL     1     157.449 154.287 162.621  0.00  0.00    +0.000 C 
ATOM     29  N1  UNL     1     157.456 154.470 164.053  0.00  0.00    +0.000 N 
ATOM     30  H4  UNL     1     157.591 153.638 164.613  0.00  0.00    +0.000 HD
BRANCH  28  31
ATOM     31  O2  UNL     1     157.621 153.020 162.070  0.00  0.00    +0.000 OA
ATOM     32  C2  UNL     1     156.557 152.069 162.179  0.00  0.00    +0.000 C 
ENDBRANCH  28  31
ENDBRANCH  26  29
ENDBRANCH   1  26
TORSDOF 5
ENDMDL
MODEL 6
REMARK VINA RESULT:      -5.7      5.229      8.150
REMARK  Name = ./3D_structures\o64_MMV1634390_3D.pdb
REMARK  8 active torsions:
REMARK  status: ('A' for Active; 'I' for Inactive)
REMARK    1  A    between atoms: C1_2  and  O2_3
REMARK    2  A    between atoms: O2_3  and  C2_4
REMARK    3  A    between atoms: N1_5  and  C3_6
REMARK    4  A    between atoms: C3_6  and  C4_7
REMARK    5  A    between atoms: C7_10  and  C16_23
REMARK    6  A    between atoms: N4_20  and  C14_21
REMARK    7  A    between atoms: C14_21  and  C15_22
REMARK    8  A    between atoms: C18_25  and  C21_29
REMARK                            x       y       z     vdW  Elec       q    Type
REMARK                         _______ _______ _______ _____ _____    ______ ____
ROOT
ATOM      1  C4  UNL     1     155.327 158.091 166.624  0.00  0.00    +0.000 A 
ATOM      2  C5  UNL     1     155.254 157.195 167.649  0.00  0.00    +0.000 A 
ATOM      3  C6  UNL     1     154.368 157.353 168.721  0.00  0.00    +0.000 A 
ATOM      4  C7  UNL     1     153.534 158.422 168.784  0.00  0.00    +0.000 A 
ATOM      5  C8  UNL     1     153.583 159.335 167.778  0.00  0.00    +0.000 A 
ATOM      6  C9  UNL     1     152.771 160.457 167.783  0.00  0.00    +0.000 A 
ATOM      7  C10 UNL     1     152.855 161.381 166.738  0.00  0.00    +0.000 A 
ATOM      8  N2  UNL     1     153.715 161.183 165.739  0.00  0.00    +0.000 NA
ATOM      9  C11 UNL     1     154.531 160.096 165.693  0.00  0.00    +0.000 A 
ATOM     10  C12 UNL     1     154.450 159.194 166.712  0.00  0.00    +0.000 A 
ATOM     11  N3  UNL     1     151.990 162.509 166.811  0.00  0.00    +0.000 N 
ATOM     12  C13 UNL     1     152.021 163.499 165.772  0.00  0.00    +0.000 C 
ATOM     13  O3  UNL     1     152.842 163.298 164.829  0.00  0.00    +0.000 OA
ATOM     14  N4  UNL     1     151.190 164.641 165.785  0.00  0.00    +0.000 N 
ATOM     15  H11 UNL     1     151.327 162.645 167.599  0.00  0.00    +0.000 HD
ATOM     16  H12 UNL     1     150.522 164.789 166.568  0.00  0.00    +0.000 HD
ENDROOT
BRANCH   4  17
ATOM     17  C16 UNL     1     152.584 158.567 169.879  0.00  0.00    +0.000 A 
ATOM     18  C17 UNL     1     152.684 159.496 170.882  0.00  0.00    +0.000 A 
ATOM     19  C18 UNL     1     151.771 159.586 171.903  0.00  0.00    +0.000 A 
ATOM     20  N5  UNL     1     150.731 158.739 171.933  0.00  0.00    +0.000 NA
ATOM     21  C19 UNL     1     150.592 157.798 170.955  0.00  0.00    +0.000 A 
ATOM     22  C20 UNL     1     151.499 157.706 169.939  0.00  0.00    +0.000 A 
ATOM     23  C21 UNL     1     151.892 160.595 172.979  0.00  0.00    +0.000 C 
ENDBRANCH   4  17
BRANCH  14  24
ATOM     24  C14 UNL     1     151.273 165.601 164.703  0.00  0.00    +0.000 C 
ATOM     25  C15 UNL     1     152.281 166.678 165.004  0.00  0.00    +0.000 C 
ENDBRANCH  14  24
BRANCH   1  26
ATOM     26  C3  UNL     1     156.233 157.962 165.492  0.00  0.00    +0.000 C 
BRANCH  26  29
ATOM     27  O1  UNL     1     157.762 156.468 163.798  0.00  0.00    +0.000 OA
ATOM     28  C1  UNL     1     158.298 156.796 164.886  0.00  0.00    +0.000 C 
ATOM     29  N1  UNL     1     157.547 157.586 165.833  0.00  0.00    +0.000 N 
ATOM     30  H4  UNL     1     158.019 157.825 166.695  0.00  0.00    +0.000 HD
BRANCH  28  31
ATOM     31  O2  UNL     1     159.601 156.397 165.175  0.00  0.00    +0.000 OA
ATOM     32  C2  UNL     1     160.663 157.342 165.015  0.00  0.00    +0.000 C 
ENDBRANCH  28  31
ENDBRANCH  26  29
ENDBRANCH   1  26
TORSDOF 5
ENDMDL
MODEL 7
REMARK VINA RESULT:      -5.7      2.954      8.255
REMARK  Name = ./3D_structures\o64_MMV1634390_3D.pdb
REMARK  8 active torsions:
REMARK  status: ('A' for Active; 'I' for Inactive)
REMARK    1  A    between atoms: C1_2  and  O2_3
REMARK    2  A    between atoms: O2_3  and  C2_4
REMARK    3  A    between atoms: N1_5  and  C3_6
REMARK    4  A    between atoms: C3_6  and  C4_7
REMARK    5  A    between atoms: C7_10  and  C16_23
REMARK    6  A    between atoms: N4_20  and  C14_21
REMARK    7  A    between atoms: C14_21  and  C15_22
REMARK    8  A    between atoms: C18_25  and  C21_29
REMARK                            x       y       z     vdW  Elec       q    Type
REMARK                         _______ _______ _______ _____ _____    ______ ____
ROOT
ATOM      1  C4  UNL     1     160.921 158.043 166.312  0.00  0.00    +0.000 A 
ATOM      2  C5  UNL     1     161.503 157.301 165.327  0.00  0.00    +0.000 A 
ATOM      3  C6  UNL     1     160.810 156.303 164.633  0.00  0.00    +0.000 A 
ATOM      4  C7  UNL     1     159.512 156.027 164.918  0.00  0.00    +0.000 A 
ATOM      5  C8  UNL     1     158.904 156.748 165.897  0.00  0.00    +0.000 A 
ATOM      6  C9  UNL     1     157.585 156.513 166.251  0.00  0.00    +0.000 A 
ATOM      7  C10 UNL     1     156.993 157.266 167.268  0.00  0.00    +0.000 A 
ATOM      8  N2  UNL     1     157.696 158.207 167.897  0.00  0.00    +0.000 NA
ATOM      9  C11 UNL     1     158.993 158.471 167.583  0.00  0.00    +0.000 A 
ATOM     10  C12 UNL     1     159.571 157.738 166.591  0.00  0.00    +0.000 A 
ATOM     11  N3  UNL     1     155.637 156.968 167.577  0.00  0.00    +0.000 N 
ATOM     12  C13 UNL     1     154.964 157.701 168.612  0.00  0.00    +0.000 C 
ATOM     13  O3  UNL     1     155.643 158.593 169.201  0.00  0.00    +0.000 OA
ATOM     14  N4  UNL     1     153.619 157.455 168.966  0.00  0.00    +0.000 N 
ATOM     15  H11 UNL     1     155.106 156.229 167.074  0.00  0.00    +0.000 HD
ATOM     16  H12 UNL     1     153.077 156.719 168.471  0.00  0.00    +0.000 HD
ENDROOT
BRANCH   4  17
ATOM     17  C16 UNL     1     158.779 155.015 164.170  0.00  0.00    +0.000 A 
ATOM     18  C17 UNL     1     158.652 153.704 164.547  0.00  0.00    +0.000 A 
ATOM     19  C18 UNL     1     157.962 152.781 163.802  0.00  0.00    +0.000 A 
ATOM     20  N5  UNL     1     157.382 153.163 162.654  0.00  0.00    +0.000 NA
ATOM     21  C19 UNL     1     157.482 154.458 162.239  0.00  0.00    +0.000 A 
ATOM     22  C20 UNL     1     158.169 155.378 162.978  0.00  0.00    +0.000 A 
ATOM     23  C21 UNL     1     157.833 151.368 164.223  0.00  0.00    +0.000 C 
ENDBRANCH   4  17
BRANCH  14  24
ATOM     24  C14 UNL     1     153.001 158.233 170.021  0.00  0.00    +0.000 C 
ATOM     25  C15 UNL     1     151.500 158.203 169.916  0.00  0.00    +0.000 C 
ENDBRANCH  14  24
BRANCH   1  26
ATOM     26  C3  UNL     1     161.607 159.090 167.056  0.00  0.00    +0.000 C 
BRANCH  26  29
ATOM     27  O1  UNL     1     163.345 161.084 167.721  0.00  0.00    +0.000 OA
ATOM     28  C1  UNL     1     163.819 159.921 167.691  0.00  0.00    +0.000 C 
ATOM     29  N1  UNL     1     162.958 158.815 167.346  0.00  0.00    +0.000 N 
ATOM     30  H4  UNL     1     163.384 157.897 167.334  0.00  0.00    +0.000 HD
BRANCH  28  31
ATOM     31  O2  UNL     1     165.163 159.704 167.986  0.00  0.00    +0.000 OA
ATOM     32  C2  UNL     1     165.504 158.738 168.986  0.00  0.00    +0.000 C 
ENDBRANCH  28  31
ENDBRANCH  26  29
ENDBRANCH   1  26
TORSDOF 5
ENDMDL
MODEL 8
REMARK VINA RESULT:      -5.7      7.401     10.134
REMARK  Name = ./3D_structures\o64_MMV1634390_3D.pdb
REMARK  8 active torsions:
REMARK  status: ('A' for Active; 'I' for Inactive)
REMARK    1  A    between atoms: C1_2  and  O2_3
REMARK    2  A    between atoms: O2_3  and  C2_4
REMARK    3  A    between atoms: N1_5  and  C3_6
REMARK    4  A    between atoms: C3_6  and  C4_7
REMARK    5  A    between atoms: C7_10  and  C16_23
REMARK    6  A    between atoms: N4_20  and  C14_21
REMARK    7  A    between atoms: C14_21  and  C15_22
REMARK    8  A    between atoms: C18_25  and  C21_29
REMARK                            x       y       z     vdW  Elec       q    Type
REMARK                         _______ _______ _______ _____ _____    ______ ____
ROOT
ATOM      1  C4  UNL     1     149.911 160.565 168.356  0.00  0.00    +0.000 A 
ATOM      2  C5  UNL     1     150.030 159.664 169.372  0.00  0.00    +0.000 A 
ATOM      3  C6  UNL     1     151.254 159.081 169.718  0.00  0.00    +0.000 A 
ATOM      4  C7  UNL     1     152.391 159.395 169.045  0.00  0.00    +0.000 A 
ATOM      5  C8  UNL     1     152.306 160.290 168.026  0.00  0.00    +0.000 A 
ATOM      6  C9  UNL     1     153.422 160.646 167.286  0.00  0.00    +0.000 A 
ATOM      7  C10 UNL     1     153.298 161.562 166.238  0.00  0.00    +0.000 A 
ATOM      8  N2  UNL     1     152.108 162.089 165.949  0.00  0.00    +0.000 NA
ATOM      9  C11 UNL     1     150.987 161.767 166.648  0.00  0.00    +0.000 A 
ATOM     10  C12 UNL     1     151.106 160.874 167.671  0.00  0.00    +0.000 A 
ATOM     11  N3  UNL     1     154.486 161.880 165.523  0.00  0.00    +0.000 N 
ATOM     12  C13 UNL     1     154.434 162.813 164.433  0.00  0.00    +0.000 C 
ATOM     13  O3  UNL     1     153.298 163.307 164.170  0.00  0.00    +0.000 OA
ATOM     14  N4  UNL     1     155.577 163.172 163.684  0.00  0.00    +0.000 N 
ATOM     15  H11 UNL     1     155.404 161.457 165.764  0.00  0.00    +0.000 HD
ATOM     16  H12 UNL     1     156.501 162.756 163.915  0.00  0.00    +0.000 HD
ENDROOT
BRANCH   4  17
ATOM     17  C16 UNL     1     153.672 158.819 169.431  0.00  0.00    +0.000 A 
ATOM     18  C17 UNL     1     154.445 159.261 170.472  0.00  0.00    +0.000 A 
ATOM     19  C18 UNL     1     155.655 158.695 170.791  0.00  0.00    +0.000 A 
ATOM     20  N5  UNL     1     156.112 157.666 170.062  0.00  0.00    +0.000 NA
ATOM     21  C19 UNL     1     155.375 157.192 169.016  0.00  0.00    +0.000 A 
ATOM     22  C20 UNL     1     154.173 157.754 168.697  0.00  0.00    +0.000 A 
ATOM     23  C21 UNL     1     156.478 159.184 171.919  0.00  0.00    +0.000 C 
ENDBRANCH   4  17
BRANCH  14  24
ATOM     24  C14 UNL     1     155.453 164.120 162.596  0.00  0.00    +0.000 C 
ATOM     25  C15 UNL     1     155.809 165.513 163.040  0.00  0.00    +0.000 C 
ENDBRANCH  14  24
BRANCH   1  26
ATOM     26  C3  UNL     1     148.657 161.193 167.966  0.00  0.00    +0.000 C 
BRANCH  26  29
ATOM     27  O1  UNL     1     147.097 163.130 166.847  0.00  0.00    +0.000 OA
ATOM     28  C1  UNL     1     147.523 163.361 168.006  0.00  0.00    +0.000 C 
ATOM     29  N1  UNL     1     148.356 162.381 168.662  0.00  0.00    +0.000 N 
ATOM     30  H4  UNL     1     148.676 162.611 169.593  0.00  0.00    +0.000 HD
BRANCH  28  31
ATOM     31  O2  UNL     1     147.196 164.552 168.649  0.00  0.00    +0.000 OA
ATOM     32  C2  UNL     1     147.058 164.554 170.073  0.00  0.00    +0.000 C 
ENDBRANCH  28  31
ENDBRANCH  26  29
ENDBRANCH   1  26
TORSDOF 5
ENDMDL
MODEL 9
REMARK VINA RESULT:      -5.6      4.140      7.414
REMARK  Name = ./3D_structures\o64_MMV1634390_3D.pdb
REMARK  8 active torsions:
REMARK  status: ('A' for Active; 'I' for Inactive)
REMARK    1  A    between atoms: C1_2  and  O2_3
REMARK    2  A    between atoms: O2_3  and  C2_4
REMARK    3  A    between atoms: N1_5  and  C3_6
REMARK    4  A    between atoms: C3_6  and  C4_7
REMARK    5  A    between atoms: C7_10  and  C16_23
REMARK    6  A    between atoms: N4_20  and  C14_21
REMARK    7  A    between atoms: C14_21  and  C15_22
REMARK    8  A    between atoms: C18_25  and  C21_29
REMARK                            x       y       z     vdW  Elec       q    Type
REMARK                         _______ _______ _______ _____ _____    ______ ____
ROOT
ATOM      1  C4  UNL     1     158.867 156.650 161.741  0.00  0.00    +0.000 A 
ATOM      2  C5  UNL     1     158.939 155.499 161.015  0.00  0.00    +0.000 A 
ATOM      3  C6  UNL     1     158.603 154.251 161.553  0.00  0.00    +0.000 A 
ATOM      4  C7  UNL     1     158.185 154.136 162.840  0.00  0.00    +0.000 A 
ATOM      5  C8  UNL     1     158.104 155.266 163.591  0.00  0.00    +0.000 A 
ATOM      6  C9  UNL     1     157.699 155.222 164.915  0.00  0.00    +0.000 A 
ATOM      7  C10 UNL     1     157.636 156.402 165.662  0.00  0.00    +0.000 A 
ATOM      8  N2  UNL     1     157.966 157.565 165.102  0.00  0.00    +0.000 NA
ATOM      9  C11 UNL     1     158.369 157.654 163.806  0.00  0.00    +0.000 A 
ATOM     10  C12 UNL     1     158.431 156.505 163.076  0.00  0.00    +0.000 A 
ATOM     11  N3  UNL     1     157.212 156.280 167.014  0.00  0.00    +0.000 N 
ATOM     12  C13 UNL     1     157.124 157.449 167.842  0.00  0.00    +0.000 C 
ATOM     13  O3  UNL     1     157.439 158.548 167.297  0.00  0.00    +0.000 OA
ATOM     14  N4  UNL     1     156.709 157.397 169.191  0.00  0.00    +0.000 N 
ATOM     15  H11 UNL     1     156.959 155.362 167.432  0.00  0.00    +0.000 HD
ATOM     16  H12 UNL     1     156.454 156.485 169.622  0.00  0.00    +0.000 HD
ENDROOT
BRANCH   4  17
ATOM     17  C16 UNL     1     157.797 152.844 163.388  0.00  0.00    +0.000 A 
ATOM     18  C17 UNL     1     158.565 152.094 164.239  0.00  0.00    +0.000 A 
ATOM     19  C18 UNL     1     158.164 150.873 164.721  0.00  0.00    +0.000 A 
ATOM     20  N5  UNL     1     156.971 150.381 164.353  0.00  0.00    +0.000 NA
ATOM     21  C19 UNL     1     156.173 151.092 163.507  0.00  0.00    +0.000 A 
ATOM     22  C20 UNL     1     156.570 152.306 163.026  0.00  0.00    +0.000 A 
ATOM     23  C21 UNL     1     159.005 150.075 165.641  0.00  0.00    +0.000 C 
ENDBRANCH   4  17
BRANCH  14  24
ATOM     24  C14 UNL     1     156.643 158.617 169.970  0.00  0.00    +0.000 C 
ATOM     25  C15 UNL     1     157.768 158.692 170.966  0.00  0.00    +0.000 C 
ENDBRANCH  14  24
BRANCH   1  26
ATOM     26  C3  UNL     1     159.207 157.965 161.218  0.00  0.00    +0.000 C 
BRANCH  26  29
ATOM     27  O1  UNL     1     157.391 159.989 161.433  0.00  0.00    +0.000 OA
ATOM     28  C1  UNL     1     157.494 159.453 160.301  0.00  0.00    +0.000 C 
ATOM     29  N1  UNL     1     158.435 158.374 160.113  0.00  0.00    +0.000 N 
ATOM     30  H4  UNL     1     158.482 157.973 159.185  0.00  0.00    +0.000 HD
BRANCH  28  31
ATOM     31  O2  UNL     1     156.706 159.895 159.242  0.00  0.00    +0.000 OA
ATOM     32  C2  UNL     1     157.299 160.023 157.946  0.00  0.00    +0.000 C 
ENDBRANCH  28  31
ENDBRANCH  26  29
ENDBRANCH   1  26
TORSDOF 5
ENDMDL
