MODEL 1
REMARK VINA RESULT:      -5.9      0.000      0.000
REMARK  Name = ./3D_structures\o66_MMV1593534_3D.pdb
REMARK  7 active torsions:
REMARK  status: ('A' for Active; 'I' for Inactive)
REMARK    1  A    between atoms: C1_1  and  C2_2
REMARK    2  A    between atoms: C2_2  and  N1_3
REMARK    3  A    between atoms: N2_6  and  C4_7
REMARK    4  A    between atoms: C6_9  and  C7_10
REMARK    5  A    between atoms: C13_16  and  C15_19
REMARK    6  A    between atoms: C18_23  and  C20_25
REMARK    7  A    between atoms: C20_25  and  O3_27
REMARK                            x       y       z     vdW  Elec       q    Type
REMARK                         _______ _______ _______ _____ _____    ______ ____
ROOT
ATOM      1  C4  UNL     1     157.180 156.463 166.307  0.00  0.00    +0.000 A 
ATOM      2  C5  UNL     1     157.340 157.028 167.554  0.00  0.00    +0.000 A 
ATOM      3  C6  UNL     1     156.360 157.768 168.182  0.00  0.00    +0.000 A 
ATOM      4  C13 UNL     1     155.153 157.954 167.530  0.00  0.00    +0.000 A 
ATOM      5  C14 UNL     1     155.036 157.369 166.282  0.00  0.00    +0.000 A 
ATOM      6  N3  UNL     1     155.998 156.660 165.698  0.00  0.00    +0.000 NA
ENDROOT
BRANCH   1  10
ATOM      7  N1  UNL     1     160.290 155.521 164.346  0.00  0.00    +0.000 N 
ATOM      8  C3  UNL     1     159.256 156.302 164.934  0.00  0.00    +0.000 C 
ATOM      9  O1  UNL     1     159.258 157.548 164.762  0.00  0.00    +0.000 OA
ATOM     10  N2  UNL     1     158.226 155.709 165.708  0.00  0.00    +0.000 N 
ATOM     11  H6  UNL     1     160.332 154.488 164.460  0.00  0.00    +0.000 HD
ATOM     12  H7  UNL     1     158.234 154.679 165.844  0.00  0.00    +0.000 HD
BRANCH   7  14
ATOM     13  C1  UNL     1     162.592 156.279 164.384  0.00  0.00    +0.000 C 
ATOM     14  C2  UNL     1     161.313 156.189 163.566  0.00  0.00    +0.000 C 
ENDBRANCH   7  14
ENDBRANCH   1  10
BRANCH   3  15
ATOM     15  C7  UNL     1     156.549 158.348 169.484  0.00  0.00    +0.000 A 
ATOM     16  C8  UNL     1     157.066 159.624 169.576  0.00  0.00    +0.000 A 
ATOM     17  C9  UNL     1     157.271 160.234 170.795  0.00  0.00    +0.000 A 
ATOM     18  C10 UNL     1     156.944 159.535 171.945  0.00  0.00    +0.000 A 
ATOM     19  C11 UNL     1     156.436 158.280 171.830  0.00  0.00    +0.000 A 
ATOM     20  C12 UNL     1     156.221 157.642 170.606  0.00  0.00    +0.000 A 
ENDBRANCH   3  15
BRANCH   4  21
ATOM     21  C15 UNL     1     154.059 158.718 168.109  0.00  0.00    +0.000 A 
ATOM     22  C16 UNL     1     153.875 160.058 167.855  0.00  0.00    +0.000 A 
ATOM     23  N4  UNL     1     152.862 160.758 168.396  0.00  0.00    +0.000 NA
ATOM     24  C17 UNL     1     151.970 160.171 169.221  0.00  0.00    +0.000 A 
ATOM     25  C18 UNL     1     152.095 158.837 169.517  0.00  0.00    +0.000 A 
ATOM     26  C19 UNL     1     153.130 158.127 168.963  0.00  0.00    +0.000 A 
BRANCH  25  27
ATOM     27  C20 UNL     1     151.113 158.243 170.411  0.00  0.00    +0.000 C 
ATOM     28  O2  UNL     1     151.043 156.991 170.432  0.00  0.00    +0.000 OA
BRANCH  27  29
ATOM     29  O3  UNL     1     150.275 158.994 171.216  0.00  0.00    +0.000 OA
ATOM     30  H18 UNL     1     149.991 159.952 170.968  0.00  0.00    +0.000 HD
ENDBRANCH  27  29
ENDBRANCH  25  27
ENDBRANCH   4  21
TORSDOF 6
ENDMDL
MODEL 2
REMARK VINA RESULT:      -5.8      3.115      8.404
REMARK  Name = ./3D_structures\o66_MMV1593534_3D.pdb
REMARK  7 active torsions:
REMARK  status: ('A' for Active; 'I' for Inactive)
REMARK    1  A    between atoms: C1_1  and  C2_2
REMARK    2  A    between atoms: C2_2  and  N1_3
REMARK    3  A    between atoms: N2_6  and  C4_7
REMARK    4  A    between atoms: C6_9  and  C7_10
REMARK    5  A    between atoms: C13_16  and  C15_19
REMARK    6  A    between atoms: C18_23  and  C20_25
REMARK    7  A    between atoms: C20_25  and  O3_27
REMARK                            x       y       z     vdW  Elec       q    Type
REMARK                         _______ _______ _______ _____ _____    ______ ____
ROOT
ATOM      1  C4  UNL     1     156.071 157.380 169.013  0.00  0.00    +0.000 A 
ATOM      2  C5  UNL     1     156.465 157.168 167.709  0.00  0.00    +0.000 A 
ATOM      3  C6  UNL     1     157.684 157.575 167.209  0.00  0.00    +0.000 A 
ATOM      4  C13 UNL     1     158.559 158.230 168.058  0.00  0.00    +0.000 A 
ATOM      5  C14 UNL     1     158.125 158.422 169.357  0.00  0.00    +0.000 A 
ATOM      6  N3  UNL     1     156.942 158.018 169.813  0.00  0.00    +0.000 NA
ENDROOT
BRANCH   1  10
ATOM      7  N1  UNL     1     152.389 157.289 169.925  0.00  0.00    +0.000 N 
ATOM      8  C3  UNL     1     153.647 157.760 169.457  0.00  0.00    +0.000 C 
ATOM      9  O1  UNL     1     153.735 158.936 169.018  0.00  0.00    +0.000 OA
ATOM     10  N2  UNL     1     154.802 156.937 169.474  0.00  0.00    +0.000 N 
ATOM     11  H6  UNL     1     152.265 156.326 170.297  0.00  0.00    +0.000 HD
ATOM     12  H7  UNL     1     154.718 155.968 169.838  0.00  0.00    +0.000 HD
BRANCH   7  14
ATOM     13  C1  UNL     1     150.055 157.508 170.543  0.00  0.00    +0.000 C 
ATOM     14  C2  UNL     1     151.247 158.182 169.882  0.00  0.00    +0.000 C 
ENDBRANCH   7  14
ENDBRANCH   1  10
BRANCH   3  15
ATOM     15  C7  UNL     1     158.073 157.342 165.844  0.00  0.00    +0.000 A 
ATOM     16  C8  UNL     1     157.738 158.278 164.888  0.00  0.00    +0.000 A 
ATOM     17  C9  UNL     1     158.083 158.112 163.563  0.00  0.00    +0.000 A 
ATOM     18  C10 UNL     1     158.781 156.972 163.203  0.00  0.00    +0.000 A 
ATOM     19  C11 UNL     1     159.100 156.064 164.161  0.00  0.00    +0.000 A 
ATOM     20  C12 UNL     1     158.761 156.211 165.509  0.00  0.00    +0.000 A 
ENDBRANCH   3  15
BRANCH   4  21
ATOM     21  C15 UNL     1     159.867 158.699 167.624  0.00  0.00    +0.000 A 
ATOM     22  C16 UNL     1     160.070 159.959 167.109  0.00  0.00    +0.000 A 
ATOM     23  N4  UNL     1     161.282 160.383 166.709  0.00  0.00    +0.000 NA
ATOM     24  C17 UNL     1     162.365 159.585 166.797  0.00  0.00    +0.000 A 
ATOM     25  C18 UNL     1     162.234 158.316 167.302  0.00  0.00    +0.000 A 
ATOM     26  C19 UNL     1     160.996 157.886 167.709  0.00  0.00    +0.000 A 
BRANCH  25  27
ATOM     27  C20 UNL     1     163.427 157.486 167.379  0.00  0.00    +0.000 C 
ATOM     28  O2  UNL     1     164.311 157.830 168.200  0.00  0.00    +0.000 OA
BRANCH  27  29
ATOM     29  O3  UNL     1     163.613 156.359 166.597  0.00  0.00    +0.000 OA
ATOM     30  H18 UNL     1     163.412 155.411 166.946  0.00  0.00    +0.000 HD
ENDBRANCH  27  29
ENDBRANCH  25  27
ENDBRANCH   4  21
TORSDOF 6
ENDMDL
MODEL 3
REMARK VINA RESULT:      -5.8      3.261      7.783
REMARK  Name = ./3D_structures\o66_MMV1593534_3D.pdb
REMARK  7 active torsions:
REMARK  status: ('A' for Active; 'I' for Inactive)
REMARK    1  A    between atoms: C1_1  and  C2_2
REMARK    2  A    between atoms: C2_2  and  N1_3
REMARK    3  A    between atoms: N2_6  and  C4_7
REMARK    4  A    between atoms: C6_9  and  C7_10
REMARK    5  A    between atoms: C13_16  and  C15_19
REMARK    6  A    between atoms: C18_23  and  C20_25
REMARK    7  A    between atoms: C20_25  and  O3_27
REMARK                            x       y       z     vdW  Elec       q    Type
REMARK                         _______ _______ _______ _____ _____    ______ ____
ROOT
ATOM      1  C4  UNL     1     156.935 158.092 170.433  0.00  0.00    +0.000 A 
ATOM      2  C5  UNL     1     158.117 158.525 169.873  0.00  0.00    +0.000 A 
ATOM      3  C6  UNL     1     158.470 158.281 168.562  0.00  0.00    +0.000 A 
ATOM      4  C13 UNL     1     157.593 157.565 167.766  0.00  0.00    +0.000 A 
ATOM      5  C14 UNL     1     156.419 157.150 168.367  0.00  0.00    +0.000 A 
ATOM      6  N3  UNL     1     156.103 157.400 169.635  0.00  0.00    +0.000 NA
ENDROOT
BRANCH   1  10
ATOM      7  N1  UNL     1     155.523 159.728 173.552  0.00  0.00    +0.000 N 
ATOM      8  C3  UNL     1     155.817 159.472 172.184  0.00  0.00    +0.000 C 
ATOM      9  O1  UNL     1     155.350 160.239 171.304  0.00  0.00    +0.000 OA
ATOM     10  N2  UNL     1     156.623 158.374 171.791  0.00  0.00    +0.000 N 
ATOM     11  H6  UNL     1     155.885 159.123 174.316  0.00  0.00    +0.000 HD
ATOM     12  H7  UNL     1     157.004 157.746 172.526  0.00  0.00    +0.000 HD
BRANCH   7  14
ATOM     13  C1  UNL     1     153.235 160.438 173.925  0.00  0.00    +0.000 C 
ATOM     14  C2  UNL     1     154.693 160.869 173.887  0.00  0.00    +0.000 C 
ENDBRANCH   7  14
ENDBRANCH   1  10
BRANCH   3  15
ATOM     15  C7  UNL     1     159.710 158.743 167.999  0.00  0.00    +0.000 A 
ATOM     16  C8  UNL     1     160.746 157.845 167.842  0.00  0.00    +0.000 A 
ATOM     17  C9  UNL     1     161.958 158.228 167.309  0.00  0.00    +0.000 A 
ATOM     18  C10 UNL     1     162.123 159.549 166.928  0.00  0.00    +0.000 A 
ATOM     19  C11 UNL     1     161.090 160.416 167.092  0.00  0.00    +0.000 A 
ATOM     20  C12 UNL     1     159.853 160.051 167.631  0.00  0.00    +0.000 A 
ENDBRANCH   3  15
BRANCH   4  21
ATOM     21  C15 UNL     1     157.875 157.256 166.372  0.00  0.00    +0.000 A 
ATOM     22  C16 UNL     1     157.701 158.171 165.359  0.00  0.00    +0.000 A 
ATOM     23  N4  UNL     1     157.963 157.877 164.074  0.00  0.00    +0.000 NA
ATOM     24  C17 UNL     1     158.413 156.657 163.714  0.00  0.00    +0.000 A 
ATOM     25  C18 UNL     1     158.609 155.696 164.674  0.00  0.00    +0.000 A 
ATOM     26  C19 UNL     1     158.341 156.000 165.985  0.00  0.00    +0.000 A 
BRANCH  25  27
ATOM     27  C20 UNL     1     159.095 154.393 164.244  0.00  0.00    +0.000 C 
ATOM     28  O2  UNL     1     159.600 154.320 163.099  0.00  0.00    +0.000 OA
BRANCH  27  29
ATOM     29  O3  UNL     1     159.020 153.262 165.039  0.00  0.00    +0.000 OA
ATOM     30  H18 UNL     1     159.851 152.852 165.487  0.00  0.00    +0.000 HD
ENDBRANCH  27  29
ENDBRANCH  25  27
ENDBRANCH   4  21
TORSDOF 6
ENDMDL
MODEL 4
REMARK VINA RESULT:      -5.7      4.484      8.781
REMARK  Name = ./3D_structures\o66_MMV1593534_3D.pdb
REMARK  7 active torsions:
REMARK  status: ('A' for Active; 'I' for Inactive)
REMARK    1  A    between atoms: C1_1  and  C2_2
REMARK    2  A    between atoms: C2_2  and  N1_3
REMARK    3  A    between atoms: N2_6  and  C4_7
REMARK    4  A    between atoms: C6_9  and  C7_10
REMARK    5  A    between atoms: C13_16  and  C15_19
REMARK    6  A    between atoms: C18_23  and  C20_25
REMARK    7  A    between atoms: C20_25  and  O3_27
REMARK                            x       y       z     vdW  Elec       q    Type
REMARK                         _______ _______ _______ _____ _____    ______ ____
ROOT
ATOM      1  C4  UNL     1     149.695 160.989 168.069  0.00  0.00    +0.000 A 
ATOM      2  C5  UNL     1     150.804 160.918 167.254  0.00  0.00    +0.000 A 
ATOM      3  C6  UNL     1     152.089 160.764 167.732  0.00  0.00    +0.000 A 
ATOM      4  C13 UNL     1     152.277 160.675 169.100  0.00  0.00    +0.000 A 
ATOM      5  C14 UNL     1     151.138 160.750 169.881  0.00  0.00    +0.000 A 
ATOM      6  N3  UNL     1     149.910 160.899 169.394  0.00  0.00    +0.000 NA
ENDROOT
BRANCH   1  10
ATOM      7  N1  UNL     1     146.438 162.532 166.883  0.00  0.00    +0.000 N 
ATOM      8  C3  UNL     1     147.742 162.405 167.438  0.00  0.00    +0.000 C 
ATOM      9  O1  UNL     1     148.329 163.432 167.865  0.00  0.00    +0.000 OA
ATOM     10  N2  UNL     1     148.394 161.148 167.521  0.00  0.00    +0.000 N 
ATOM     11  H6  UNL     1     145.913 161.713 166.517  0.00  0.00    +0.000 HD
ATOM     12  H7  UNL     1     147.901 160.305 167.165  0.00  0.00    +0.000 HD
BRANCH   7  14
ATOM     13  C1  UNL     1     144.700 163.919 167.847  0.00  0.00    +0.000 C 
ATOM     14  C2  UNL     1     145.827 163.846 166.829  0.00  0.00    +0.000 C 
ENDBRANCH   7  14
ENDBRANCH   1  10
BRANCH   3  15
ATOM     15  C7  UNL     1     153.231 160.693 166.861  0.00  0.00    +0.000 A 
ATOM     16  C8  UNL     1     153.720 159.453 166.503  0.00  0.00    +0.000 A 
ATOM     17  C9  UNL     1     154.811 159.319 165.672  0.00  0.00    +0.000 A 
ATOM     18  C10 UNL     1     155.420 160.468 165.195  0.00  0.00    +0.000 A 
ATOM     19  C11 UNL     1     154.923 161.678 165.561  0.00  0.00    +0.000 A 
ATOM     20  C12 UNL     1     153.818 161.838 166.402  0.00  0.00    +0.000 A 
ENDBRANCH   3  15
BRANCH   4  21
ATOM     21  C15 UNL     1     153.592 160.512 169.701  0.00  0.00    +0.000 A 
ATOM     22  C16 UNL     1     154.402 161.580 170.016  0.00  0.00    +0.000 A 
ATOM     23  N4  UNL     1     155.617 161.420 170.569  0.00  0.00    +0.000 NA
ATOM     24  C17 UNL     1     156.103 160.193 170.844  0.00  0.00    +0.000 A 
ATOM     25  C18 UNL     1     155.349 159.083 170.556  0.00  0.00    +0.000 A 
ATOM     26  C19 UNL     1     154.109 159.250 169.991  0.00  0.00    +0.000 A 
BRANCH  25  27
ATOM     27  C20 UNL     1     155.909 157.777 170.868  0.00  0.00    +0.000 C 
ATOM     28  O2  UNL     1     156.703 157.712 171.836  0.00  0.00    +0.000 OA
BRANCH  27  29
ATOM     29  O3  UNL     1     155.603 156.635 170.148  0.00  0.00    +0.000 OA
ATOM     30  H18 UNL     1     156.071 155.735 170.325  0.00  0.00    +0.000 HD
ENDBRANCH  27  29
ENDBRANCH  25  27
ENDBRANCH   4  21
TORSDOF 6
ENDMDL
MODEL 5
REMARK VINA RESULT:      -5.7      3.760      8.514
REMARK  Name = ./3D_structures\o66_MMV1593534_3D.pdb
REMARK  7 active torsions:
REMARK  status: ('A' for Active; 'I' for Inactive)
REMARK    1  A    between atoms: C1_1  and  C2_2
REMARK    2  A    between atoms: C2_2  and  N1_3
REMARK    3  A    between atoms: N2_6  and  C4_7
REMARK    4  A    between atoms: C6_9  and  C7_10
REMARK    5  A    between atoms: C13_16  and  C15_19
REMARK    6  A    between atoms: C18_23  and  C20_25
REMARK    7  A    between atoms: C20_25  and  O3_27
REMARK                            x       y       z     vdW  Elec       q    Type
REMARK                         _______ _______ _______ _____ _____    ______ ____
ROOT
ATOM      1  C4  UNL     1     150.402 161.332 168.890  0.00  0.00    +0.000 A 
ATOM      2  C5  UNL     1     151.508 161.549 168.097  0.00  0.00    +0.000 A 
ATOM      3  C6  UNL     1     152.627 160.742 168.118  0.00  0.00    +0.000 A 
ATOM      4  C13 UNL     1     152.642 159.659 168.979  0.00  0.00    +0.000 A 
ATOM      5  C14 UNL     1     151.513 159.479 169.757  0.00  0.00    +0.000 A 
ATOM      6  N3  UNL     1     150.446 160.273 169.716  0.00  0.00    +0.000 NA
ENDROOT
BRANCH   1  10
ATOM      7  N1  UNL     1     147.073 162.862 167.901  0.00  0.00    +0.000 N 
ATOM      8  C3  UNL     1     148.187 161.978 167.943  0.00  0.00    +0.000 C 
ATOM      9  O1  UNL     1     148.204 160.979 167.179  0.00  0.00    +0.000 OA
ATOM     10  N2  UNL     1     149.276 162.197 168.825  0.00  0.00    +0.000 N 
ATOM     11  H6  UNL     1     147.012 163.701 168.512  0.00  0.00    +0.000 HD
ATOM     12  H7  UNL     1     149.252 163.025 169.452  0.00  0.00    +0.000 HD
BRANCH   7  14
ATOM     13  C1  UNL     1     145.750 163.801 166.100  0.00  0.00    +0.000 C 
ATOM     14  C2  UNL     1     145.992 162.582 166.976  0.00  0.00    +0.000 C 
ENDBRANCH   7  14
ENDBRANCH   1  10
BRANCH   3  15
ATOM     15  C7  UNL     1     153.770 160.988 167.280  0.00  0.00    +0.000 A 
ATOM     16  C8  UNL     1     153.797 160.442 166.014  0.00  0.00    +0.000 A 
ATOM     17  C9  UNL     1     154.864 160.641 165.164  0.00  0.00    +0.000 A 
ATOM     18  C10 UNL     1     155.926 161.410 165.610  0.00  0.00    +0.000 A 
ATOM     19  C11 UNL     1     155.878 161.938 166.861  0.00  0.00    +0.000 A 
ATOM     20  C12 UNL     1     154.807 161.749 167.739  0.00  0.00    +0.000 A 
ENDBRANCH   3  15
BRANCH   4  21
ATOM     21  C15 UNL     1     153.775 158.751 169.076  0.00  0.00    +0.000 A 
ATOM     22  C16 UNL     1     153.949 157.687 168.219  0.00  0.00    +0.000 A 
ATOM     23  N4  UNL     1     154.998 156.852 168.317  0.00  0.00    +0.000 NA
ATOM     24  C17 UNL     1     155.938 157.021 169.268  0.00  0.00    +0.000 A 
ATOM     25  C18 UNL     1     155.828 158.061 170.156  0.00  0.00    +0.000 A 
ATOM     26  C19 UNL     1     154.756 158.912 170.054  0.00  0.00    +0.000 A 
BRANCH  25  27
ATOM     27  C20 UNL     1     156.864 158.208 171.167  0.00  0.00    +0.000 C 
ATOM     28  O2  UNL     1     156.488 158.348 172.355  0.00  0.00    +0.000 OA
BRANCH  27  29
ATOM     29  O3  UNL     1     158.215 158.199 170.868  0.00  0.00    +0.000 OA
ATOM     30  H18 UNL     1     158.577 158.522 169.960  0.00  0.00    +0.000 HD
ENDBRANCH  27  29
ENDBRANCH  25  27
ENDBRANCH   4  21
TORSDOF 6
ENDMDL
MODEL 6
REMARK VINA RESULT:      -5.6      3.241      4.030
REMARK  Name = ./3D_structures\o66_MMV1593534_3D.pdb
REMARK  7 active torsions:
REMARK  status: ('A' for Active; 'I' for Inactive)
REMARK    1  A    between atoms: C1_1  and  C2_2
REMARK    2  A    between atoms: C2_2  and  N1_3
REMARK    3  A    between atoms: N2_6  and  C4_7
REMARK    4  A    between atoms: C6_9  and  C7_10
REMARK    5  A    between atoms: C13_16  and  C15_19
REMARK    6  A    between atoms: C18_23  and  C20_25
REMARK    7  A    between atoms: C20_25  and  O3_27
REMARK                            x       y       z     vdW  Elec       q    Type
REMARK                         _______ _______ _______ _____ _____    ______ ____
ROOT
ATOM      1  C4  UNL     1     158.544 155.406 164.772  0.00  0.00    +0.000 A 
ATOM      2  C5  UNL     1     158.282 155.790 166.069  0.00  0.00    +0.000 A 
ATOM      3  C6  UNL     1     157.656 156.974 166.398  0.00  0.00    +0.000 A 
ATOM      4  C13 UNL     1     157.271 157.823 165.374  0.00  0.00    +0.000 A 
ATOM      5  C14 UNL     1     157.553 157.399 164.089  0.00  0.00    +0.000 A 
ATOM      6  N3  UNL     1     158.158 156.250 163.799  0.00  0.00    +0.000 NA
ENDROOT
BRANCH   1  10
ATOM      7  N1  UNL     1     159.158 151.762 163.909  0.00  0.00    +0.000 N 
ATOM      8  C3  UNL     1     158.482 152.982 164.185  0.00  0.00    +0.000 C 
ATOM      9  O1  UNL     1     157.225 153.005 164.156  0.00  0.00    +0.000 OA
ATOM     10  N2  UNL     1     159.191 154.172 164.492  0.00  0.00    +0.000 N 
ATOM     11  H6  UNL     1     160.196 151.692 163.921  0.00  0.00    +0.000 HD
ATOM     12  H7  UNL     1     160.230 154.142 164.513  0.00  0.00    +0.000 HD
BRANCH   7  14
ATOM     13  C1  UNL     1     158.221 149.739 164.861  0.00  0.00    +0.000 C 
ATOM     14  C2  UNL     1     158.374 150.581 163.604  0.00  0.00    +0.000 C 
ENDBRANCH   7  14
ENDBRANCH   1  10
BRANCH   3  15
ATOM     15  C7  UNL     1     157.393 157.354 167.760  0.00  0.00    +0.000 A 
ATOM     16  C8  UNL     1     158.343 158.086 168.442  0.00  0.00    +0.000 A 
ATOM     17  C9  UNL     1     158.149 158.480 169.749  0.00  0.00    +0.000 A 
ATOM     18  C10 UNL     1     156.966 158.123 170.376  0.00  0.00    +0.000 A 
ATOM     19  C11 UNL     1     156.046 157.402 169.684  0.00  0.00    +0.000 A 
ATOM     20  C12 UNL     1     156.221 156.992 168.360  0.00  0.00    +0.000 A 
ENDBRANCH   3  15
BRANCH   4  21
ATOM     21  C15 UNL     1     156.607 159.094 165.619  0.00  0.00    +0.000 A 
ATOM     22  C16 UNL     1     157.296 160.279 165.750  0.00  0.00    +0.000 A 
ATOM     23  N4  UNL     1     156.674 161.449 165.978  0.00  0.00    +0.000 NA
ATOM     24  C17 UNL     1     155.331 161.516 166.089  0.00  0.00    +0.000 A 
ATOM     25  C18 UNL     1     154.582 160.372 165.969  0.00  0.00    +0.000 A 
ATOM     26  C19 UNL     1     155.220 159.180 165.737  0.00  0.00    +0.000 A 
BRANCH  25  27
ATOM     27  C20 UNL     1     153.137 160.488 166.096  0.00  0.00    +0.000 C 
ATOM     28  O2  UNL     1     152.476 160.589 165.036  0.00  0.00    +0.000 OA
BRANCH  27  29
ATOM     29  O3  UNL     1     152.486 160.489 167.318  0.00  0.00    +0.000 OA
ATOM     30  H18 UNL     1     152.321 161.355 167.849  0.00  0.00    +0.000 HD
ENDBRANCH  27  29
ENDBRANCH  25  27
ENDBRANCH   4  21
TORSDOF 6
ENDMDL
MODEL 7
REMARK VINA RESULT:      -5.5      3.361      4.449
REMARK  Name = ./3D_structures\o66_MMV1593534_3D.pdb
REMARK  7 active torsions:
REMARK  status: ('A' for Active; 'I' for Inactive)
REMARK    1  A    between atoms: C1_1  and  C2_2
REMARK    2  A    between atoms: C2_2  and  N1_3
REMARK    3  A    between atoms: N2_6  and  C4_7
REMARK    4  A    between atoms: C6_9  and  C7_10
REMARK    5  A    between atoms: C13_16  and  C15_19
REMARK    6  A    between atoms: C18_23  and  C20_25
REMARK    7  A    between atoms: C20_25  and  O3_27
REMARK                            x       y       z     vdW  Elec       q    Type
REMARK                         _______ _______ _______ _____ _____    ______ ____
ROOT
ATOM      1  C4  UNL     1     161.166 157.966 167.248  0.00  0.00    +0.000 A 
ATOM      2  C5  UNL     1     160.454 158.500 168.299  0.00  0.00    +0.000 A 
ATOM      3  C6  UNL     1     159.078 158.602 168.309  0.00  0.00    +0.000 A 
ATOM      4  C13 UNL     1     158.375 158.146 167.208  0.00  0.00    +0.000 A 
ATOM      5  C14 UNL     1     159.129 157.618 166.176  0.00  0.00    +0.000 A 
ATOM      6  N3  UNL     1     160.456 157.530 166.192  0.00  0.00    +0.000 NA
ENDROOT
BRANCH   1  10
ATOM      7  N1  UNL     1     164.845 158.880 167.072  0.00  0.00    +0.000 N 
ATOM      8  C3  UNL     1     163.428 158.991 167.019  0.00  0.00    +0.000 C 
ATOM      9  O1  UNL     1     162.912 160.100 166.721  0.00  0.00    +0.000 OA
ATOM     10  N2  UNL     1     162.585 157.885 167.293  0.00  0.00    +0.000 N 
ATOM     11  H6  UNL     1     165.318 157.986 167.313  0.00  0.00    +0.000 HD
ATOM     12  H7  UNL     1     163.020 156.974 167.538  0.00  0.00    +0.000 HD
BRANCH   7  14
ATOM     13  C1  UNL     1     166.255 159.910 165.391  0.00  0.00    +0.000 C 
ATOM     14  C2  UNL     1     165.651 160.050 166.780  0.00  0.00    +0.000 C 
ENDBRANCH   7  14
ENDBRANCH   1  10
BRANCH   3  15
ATOM     15  C7  UNL     1     158.355 159.163 169.419  0.00  0.00    +0.000 A 
ATOM     16  C8  UNL     1     157.940 158.327 170.434  0.00  0.00    +0.000 A 
ATOM     17  C9  UNL     1     157.244 158.805 171.524  0.00  0.00    +0.000 A 
ATOM     18  C10 UNL     1     156.963 160.160 171.583  0.00  0.00    +0.000 A 
ATOM     19  C11 UNL     1     157.381 160.964 170.572  0.00  0.00    +0.000 A 
ATOM     20  C12 UNL     1     158.088 160.502 169.458  0.00  0.00    +0.000 A 
ENDBRANCH   3  15
BRANCH   4  21
ATOM     21  C15 UNL     1     156.924 158.211 167.123  0.00  0.00    +0.000 A 
ATOM     22  C16 UNL     1     156.106 157.221 167.619  0.00  0.00    +0.000 A 
ATOM     23  N4  UNL     1     154.766 157.289 167.534  0.00  0.00    +0.000 NA
ATOM     24  C17 UNL     1     154.155 158.343 166.954  0.00  0.00    +0.000 A 
ATOM     25  C18 UNL     1     154.910 159.366 166.439  0.00  0.00    +0.000 A 
ATOM     26  C19 UNL     1     156.277 159.293 166.526  0.00  0.00    +0.000 A 
BRANCH  25  27
ATOM     27  C20 UNL     1     154.213 160.484 165.821  0.00  0.00    +0.000 C 
ATOM     28  O2  UNL     1     154.837 161.567 165.729  0.00  0.00    +0.000 OA
BRANCH  27  29
ATOM     29  O3  UNL     1     152.916 160.392 165.346  0.00  0.00    +0.000 OA
ATOM     30  H18 UNL     1     152.707 160.265 164.346  0.00  0.00    +0.000 HD
ENDBRANCH  27  29
ENDBRANCH  25  27
ENDBRANCH   4  21
TORSDOF 6
ENDMDL
MODEL 8
REMARK VINA RESULT:      -5.4      3.259      8.297
REMARK  Name = ./3D_structures\o66_MMV1593534_3D.pdb
REMARK  7 active torsions:
REMARK  status: ('A' for Active; 'I' for Inactive)
REMARK    1  A    between atoms: C1_1  and  C2_2
REMARK    2  A    between atoms: C2_2  and  N1_3
REMARK    3  A    between atoms: N2_6  and  C4_7
REMARK    4  A    between atoms: C6_9  and  C7_10
REMARK    5  A    between atoms: C13_16  and  C15_19
REMARK    6  A    between atoms: C18_23  and  C20_25
REMARK    7  A    between atoms: C20_25  and  O3_27
REMARK                            x       y       z     vdW  Elec       q    Type
REMARK                         _______ _______ _______ _____ _____    ______ ____
ROOT
ATOM      1  C4  UNL     1     150.987 161.708 167.043  0.00  0.00    +0.000 A 
ATOM      2  C5  UNL     1     151.846 161.133 167.955  0.00  0.00    +0.000 A 
ATOM      3  C6  UNL     1     153.043 160.545 167.604  0.00  0.00    +0.000 A 
ATOM      4  C13 UNL     1     153.403 160.530 166.267  0.00  0.00    +0.000 A 
ATOM      5  C14 UNL     1     152.513 161.117 165.387  0.00  0.00    +0.000 A 
ATOM      6  N3  UNL     1     151.364 161.678 165.753  0.00  0.00    +0.000 NA
ENDROOT
BRANCH   1  10
ATOM      7  N1  UNL     1     147.328 162.215 167.911  0.00  0.00    +0.000 N 
ATOM      8  C3  UNL     1     148.535 161.595 167.485  0.00  0.00    +0.000 C 
ATOM      9  O1  UNL     1     148.508 160.392 167.119  0.00  0.00    +0.000 OA
ATOM     10  N2  UNL     1     149.765 162.300 167.463  0.00  0.00    +0.000 N 
ATOM     11  H6  UNL     1     147.298 163.207 168.223  0.00  0.00    +0.000 HD
ATOM     12  H7  UNL     1     149.776 163.294 167.768  0.00  0.00    +0.000 HD
BRANCH   7  14
ATOM     13  C1  UNL     1     144.932 162.345 168.252  0.00  0.00    +0.000 C 
ATOM     14  C2  UNL     1     146.103 161.439 167.908  0.00  0.00    +0.000 C 
ENDBRANCH   7  14
ENDBRANCH   1  10
BRANCH   3  15
ATOM     15  C7  UNL     1     153.924 159.951 168.574  0.00  0.00    +0.000 A 
ATOM     16  C8  UNL     1     153.669 158.666 169.005  0.00  0.00    +0.000 A 
ATOM     17  C9  UNL     1     154.476 158.043 169.933  0.00  0.00    +0.000 A 
ATOM     18  C10 UNL     1     155.564 158.740 170.433  0.00  0.00    +0.000 A 
ATOM     19  C11 UNL     1     155.795 160.004 169.994  0.00  0.00    +0.000 A 
ATOM     20  C12 UNL     1     154.990 160.656 169.055  0.00  0.00    +0.000 A 
ENDBRANCH   3  15
BRANCH   4  21
ATOM     21  C15 UNL     1     154.644 159.933 165.797  0.00  0.00    +0.000 A 
ATOM     22  C16 UNL     1     155.564 160.629 165.046  0.00  0.00    +0.000 A 
ATOM     23  N4  UNL     1     156.707 160.069 164.614  0.00  0.00    +0.000 NA
ATOM     24  C17 UNL     1     157.009 158.786 164.901  0.00  0.00    +0.000 A 
ATOM     25  C18 UNL     1     156.136 158.034 165.647  0.00  0.00    +0.000 A 
ATOM     26  C19 UNL     1     154.970 158.609 166.086  0.00  0.00    +0.000 A 
BRANCH  25  27
ATOM     27  C20 UNL     1     156.499 156.655 165.935  0.00  0.00    +0.000 C 
ATOM     28  O2  UNL     1     157.115 156.437 167.006  0.00  0.00    +0.000 OA
BRANCH  27  29
ATOM     29  O3  UNL     1     156.194 155.603 165.088  0.00  0.00    +0.000 OA
ATOM     30  H18 UNL     1     156.217 154.623 165.402  0.00  0.00    +0.000 HD
ENDBRANCH  27  29
ENDBRANCH  25  27
ENDBRANCH   4  21
TORSDOF 6
ENDMDL
MODEL 9
REMARK VINA RESULT:      -5.4      3.101      5.012
REMARK  Name = ./3D_structures\o66_MMV1593534_3D.pdb
REMARK  7 active torsions:
REMARK  status: ('A' for Active; 'I' for Inactive)
REMARK    1  A    between atoms: C1_1  and  C2_2
REMARK    2  A    between atoms: C2_2  and  N1_3
REMARK    3  A    between atoms: N2_6  and  C4_7
REMARK    4  A    between atoms: C6_9  and  C7_10
REMARK    5  A    between atoms: C13_16  and  C15_19
REMARK    6  A    between atoms: C18_23  and  C20_25
REMARK    7  A    between atoms: C20_25  and  O3_27
REMARK                            x       y       z     vdW  Elec       q    Type
REMARK                         _______ _______ _______ _____ _____    ______ ____
ROOT
ATOM      1  C4  UNL     1     158.940 156.350 163.794  0.00  0.00    +0.000 A 
ATOM      2  C5  UNL     1     157.811 157.114 163.997  0.00  0.00    +0.000 A 
ATOM      3  C6  UNL     1     157.574 157.825 165.154  0.00  0.00    +0.000 A 
ATOM      4  C13 UNL     1     158.516 157.770 166.167  0.00  0.00    +0.000 A 
ATOM      5  C14 UNL     1     159.633 156.992 165.922  0.00  0.00    +0.000 A 
ATOM      6  N3  UNL     1     159.837 156.316 164.795  0.00  0.00    +0.000 NA
ENDROOT
BRANCH   1  10
ATOM      7  N1  UNL     1     158.973 153.592 161.188  0.00  0.00    +0.000 N 
ATOM      8  C3  UNL     1     158.769 154.277 162.418  0.00  0.00    +0.000 C 
ATOM      9  O1  UNL     1     158.253 153.660 163.384  0.00  0.00    +0.000 OA
ATOM     10  N2  UNL     1     159.132 155.639 162.579  0.00  0.00    +0.000 N 
ATOM     11  H6  UNL     1     159.396 154.059 160.361  0.00  0.00    +0.000 HD
ATOM     12  H7  UNL     1     159.558 156.140 161.774  0.00  0.00    +0.000 HD
BRANCH   7  14
ATOM     13  C1  UNL     1     159.810 151.318 161.239  0.00  0.00    +0.000 C 
ATOM     14  C2  UNL     1     158.580 152.199 161.090  0.00  0.00    +0.000 C 
ENDBRANCH   7  14
ENDBRANCH   1  10
BRANCH   3  15
ATOM     15  C7  UNL     1     156.388 158.616 165.343  0.00  0.00    +0.000 A 
ATOM     16  C8  UNL     1     155.287 158.035 165.938  0.00  0.00    +0.000 A 
ATOM     17  C9  UNL     1     154.121 158.741 166.146  0.00  0.00    +0.000 A 
ATOM     18  C10 UNL     1     154.073 160.065 165.741  0.00  0.00    +0.000 A 
ATOM     19  C11 UNL     1     155.168 160.616 165.158  0.00  0.00    +0.000 A 
ATOM     20  C12 UNL     1     156.360 159.920 164.937  0.00  0.00    +0.000 A 
ENDBRANCH   3  15
BRANCH   4  21
ATOM     21  C15 UNL     1     158.356 158.483 167.425  0.00  0.00    +0.000 A 
ATOM     22  C16 UNL     1     158.989 159.676 167.687  0.00  0.00    +0.000 A 
ATOM     23  N4  UNL     1     158.837 160.328 168.854  0.00  0.00    +0.000 NA
ATOM     24  C17 UNL     1     158.048 159.836 169.831  0.00  0.00    +0.000 A 
ATOM     25  C18 UNL     1     157.387 158.649 169.636  0.00  0.00    +0.000 A 
ATOM     26  C19 UNL     1     157.544 157.987 168.445  0.00  0.00    +0.000 A 
BRANCH  25  27
ATOM     27  C20 UNL     1     156.546 158.153 170.715  0.00  0.00    +0.000 C 
ATOM     28  O2  UNL     1     155.353 157.887 170.434  0.00  0.00    +0.000 OA
BRANCH  27  29
ATOM     29  O3  UNL     1     157.008 157.970 172.007  0.00  0.00    +0.000 OA
ATOM     30  H18 UNL     1     156.922 157.067 172.496  0.00  0.00    +0.000 HD
ENDBRANCH  27  29
ENDBRANCH  25  27
ENDBRANCH   4  21
TORSDOF 6
ENDMDL
