MODEL 1
REMARK VINA RESULT:      -6.7      0.000      0.000
REMARK  Name = ./3D_structures\o68_MMV1582494_3D.pdb
REMARK  8 active torsions:
REMARK  status: ('A' for Active; 'I' for Inactive)
REMARK    1  A    between atoms: C1_1  and  C2_2
REMARK    2  A    between atoms: C2_2  and  O1_3
REMARK    3  A    between atoms: C2_2  and  C3_4
REMARK    4  A    between atoms: C3_4  and  N1_5
REMARK    5  A    between atoms: C3_4  and  C4_6
REMARK    6  A    between atoms: N2_8  and  S1_9
REMARK    7  A    between atoms: S1_9  and  C5_12
REMARK    8  A    between atoms: C9_16  and  C11_18
REMARK                            x       y       z     vdW  Elec       q    Type
REMARK                         _______ _______ _______ _____ _____    ______ ____
ROOT
ATOM      1  C5  UNL     1     150.829 160.054 168.790  0.00  0.00    +0.000 A 
ATOM      2  C6  UNL     1     149.977 159.169 169.451  0.00  0.00    +0.000 A 
ATOM      3  C7  UNL     1     150.438 158.052 170.119  0.00  0.00    +0.000 A 
ATOM      4  C8  UNL     1     151.800 157.833 170.114  0.00  0.00    +0.000 A 
ATOM      5  C9  UNL     1     152.647 158.706 169.462  0.00  0.00    +0.000 A 
ATOM      6  C10 UNL     1     152.187 159.826 168.791  0.00  0.00    +0.000 A 
ENDROOT
BRANCH   5   7
ATOM      7  C11 UNL     1     154.069 158.410 169.510  0.00  0.00    +0.000 A 
ATOM      8  C12 UNL     1     154.602 157.618 168.517  0.00  0.00    +0.000 A 
ATOM      9  C13 UNL     1     155.948 157.333 168.569  0.00  0.00    +0.000 A 
ATOM     10  C14 UNL     1     156.724 157.827 169.583  0.00  0.00    +0.000 A 
ATOM     11  N3  UNL     1     158.034 157.698 169.860  0.00  0.00    +0.000 N 
ATOM     12  N4  UNL     1     158.334 158.364 170.962  0.00  0.00    +0.000 NA
ATOM     13  C15 UNL     1     157.237 158.951 171.447  0.00  0.00    +0.000 A 
ATOM     14  C16 UNL     1     156.210 158.626 170.593  0.00  0.00    +0.000 A 
ATOM     15  C17 UNL     1     154.844 158.909 170.529  0.00  0.00    +0.000 A 
ATOM     16  H16 UNL     1     158.704 157.152 169.283  0.00  0.00    +0.000 HD
ENDBRANCH   5   7
BRANCH   1  17
ATOM     17  S1  UNL     1     150.135 161.459 167.973  0.00  0.00    +0.000 S 
ATOM     18  O3  UNL     1     149.478 161.003 166.707  0.00  0.00    +0.000 OA
ATOM     19  O4  UNL     1     151.262 162.384 167.573  0.00  0.00    +0.000 OA
BRANCH  17  22
ATOM     20  C4  UNL     1     148.431 163.489 168.811  0.00  0.00    +0.000 C 
ATOM     21  O2  UNL     1     148.665 164.080 167.727  0.00  0.00    +0.000 OA
ATOM     22  N2  UNL     1     149.065 162.259 169.033  0.00  0.00    +0.000 N 
ATOM     23  H9  UNL     1     148.860 161.777 169.952  0.00  0.00    +0.000 HD
BRANCH  20  24
ATOM     24  C3  UNL     1     147.524 164.093 169.782  0.00  0.00    +0.000 C 
BRANCH  24  25
ATOM     25  N1  UNL     1     148.156 165.107 170.602  0.00  0.00    +0.000 NA
ATOM     26  H7  UNL     1     147.906 165.039 171.607  0.00  0.00    +0.000 HD
ATOM     27  H8  UNL     1     149.162 165.212 170.415  0.00  0.00    +0.000 HD
ENDBRANCH  24  25
BRANCH  24  29
ATOM     28  C1  UNL     1     145.308 163.544 168.781  0.00  0.00    +0.000 C 
ATOM     29  C2  UNL     1     146.283 164.640 169.153  0.00  0.00    +0.000 C 
BRANCH  29  30
ATOM     30  O1  UNL     1     145.718 165.599 169.989  0.00  0.00    +0.000 OA
ATOM     31  H5  UNL     1     144.873 165.894 169.610  0.00  0.00    +0.000 HD
ENDBRANCH  29  30
ENDBRANCH  24  29
ENDBRANCH  20  24
ENDBRANCH  17  22
ENDBRANCH   1  17
TORSDOF 7
ENDMDL
MODEL 2
REMARK VINA RESULT:      -6.7      2.353      2.942
REMARK  Name = ./3D_structures\o68_MMV1582494_3D.pdb
REMARK  8 active torsions:
REMARK  status: ('A' for Active; 'I' for Inactive)
REMARK    1  A    between atoms: C1_1  and  C2_2
REMARK    2  A    between atoms: C2_2  and  O1_3
REMARK    3  A    between atoms: C2_2  and  C3_4
REMARK    4  A    between atoms: C3_4  and  N1_5
REMARK    5  A    between atoms: C3_4  and  C4_6
REMARK    6  A    between atoms: N2_8  and  S1_9
REMARK    7  A    between atoms: S1_9  and  C5_12
REMARK    8  A    between atoms: C9_16  and  C11_18
REMARK                            x       y       z     vdW  Elec       q    Type
REMARK                         _______ _______ _______ _____ _____    ______ ____
ROOT
ATOM      1  C5  UNL     1     150.929 161.115 167.280  0.00  0.00    +0.000 A 
ATOM      2  C6  UNL     1     151.354 161.377 165.977  0.00  0.00    +0.000 A 
ATOM      3  C7  UNL     1     152.579 160.960 165.497  0.00  0.00    +0.000 A 
ATOM      4  C8  UNL     1     153.390 160.259 166.365  0.00  0.00    +0.000 A 
ATOM      5  C9  UNL     1     152.973 159.998 167.655  0.00  0.00    +0.000 A 
ATOM      6  C10 UNL     1     151.745 160.414 168.138  0.00  0.00    +0.000 A 
ENDROOT
BRANCH   5   7
ATOM      7  C11 UNL     1     153.881 159.246 168.506  0.00  0.00    +0.000 A 
ATOM      8  C12 UNL     1     154.292 158.003 168.079  0.00  0.00    +0.000 A 
ATOM      9  C13 UNL     1     155.147 157.290 168.890  0.00  0.00    +0.000 A 
ATOM     10  C14 UNL     1     155.568 157.812 170.084  0.00  0.00    +0.000 A 
ATOM     11  N3  UNL     1     156.382 157.329 171.041  0.00  0.00    +0.000 N 
ATOM     12  N4  UNL     1     156.492 158.203 172.027  0.00  0.00    +0.000 NA
ATOM     13  C15 UNL     1     155.759 159.285 171.755  0.00  0.00    +0.000 A 
ATOM     14  C16 UNL     1     155.168 159.060 170.534  0.00  0.00    +0.000 A 
ATOM     15  C17 UNL     1     154.302 159.773 169.704  0.00  0.00    +0.000 A 
ATOM     16  H16 UNL     1     156.850 156.403 170.999  0.00  0.00    +0.000 HD
ENDBRANCH   5   7
BRANCH   1  17
ATOM     17  S1  UNL     1     149.335 161.686 167.789  0.00  0.00    +0.000 S 
ATOM     18  O3  UNL     1     149.249 161.601 169.282  0.00  0.00    +0.000 OA
ATOM     19  O4  UNL     1     148.291 160.744 167.235  0.00  0.00    +0.000 OA
BRANCH  17  22
ATOM     20  C4  UNL     1     147.913 164.027 167.318  0.00  0.00    +0.000 C 
ATOM     21  O2  UNL     1     146.942 163.514 167.926  0.00  0.00    +0.000 OA
ATOM     22  N2  UNL     1     149.081 163.263 167.192  0.00  0.00    +0.000 N 
ATOM     23  H9  UNL     1     149.888 163.710 166.673  0.00  0.00    +0.000 HD
BRANCH  20  24
ATOM     24  C3  UNL     1     147.793 165.377 166.774  0.00  0.00    +0.000 C 
BRANCH  24  25
ATOM     25  N1  UNL     1     148.829 165.700 165.814  0.00  0.00    +0.000 NA
ATOM     26  H7  UNL     1     149.643 165.056 165.852  0.00  0.00    +0.000 HD
ATOM     27  H8  UNL     1     148.466 165.880 164.869  0.00  0.00    +0.000 HD
ENDBRANCH  24  25
BRANCH  24  29
ATOM     28  C1  UNL     1     146.320 167.071 165.691  0.00  0.00    +0.000 C 
ATOM     29  C2  UNL     1     146.445 165.648 166.188  0.00  0.00    +0.000 C 
BRANCH  29  30
ATOM     30  O1  UNL     1     146.165 164.707 165.200  0.00  0.00    +0.000 OA
ATOM     31  H5  UNL     1     145.277 164.874 164.844  0.00  0.00    +0.000 HD
ENDBRANCH  29  30
ENDBRANCH  24  29
ENDBRANCH  20  24
ENDBRANCH  17  22
ENDBRANCH   1  17
TORSDOF 7
ENDMDL
MODEL 3
REMARK VINA RESULT:      -6.6      6.372      9.775
REMARK  Name = ./3D_structures\o68_MMV1582494_3D.pdb
REMARK  8 active torsions:
REMARK  status: ('A' for Active; 'I' for Inactive)
REMARK    1  A    between atoms: C1_1  and  C2_2
REMARK    2  A    between atoms: C2_2  and  O1_3
REMARK    3  A    between atoms: C2_2  and  C3_4
REMARK    4  A    between atoms: C3_4  and  N1_5
REMARK    5  A    between atoms: C3_4  and  C4_6
REMARK    6  A    between atoms: N2_8  and  S1_9
REMARK    7  A    between atoms: S1_9  and  C5_12
REMARK    8  A    between atoms: C9_16  and  C11_18
REMARK                            x       y       z     vdW  Elec       q    Type
REMARK                         _______ _______ _______ _____ _____    ______ ____
ROOT
ATOM      1  C5  UNL     1     147.430 160.575 167.862  0.00  0.00    +0.000 A 
ATOM      2  C6  UNL     1     148.785 160.683 168.176  0.00  0.00    +0.000 A 
ATOM      3  C7  UNL     1     149.490 161.861 168.032  0.00  0.00    +0.000 A 
ATOM      4  C8  UNL     1     148.798 162.955 167.557  0.00  0.00    +0.000 A 
ATOM      5  C9  UNL     1     147.457 162.853 167.245  0.00  0.00    +0.000 A 
ATOM      6  C10 UNL     1     146.749 161.673 167.389  0.00  0.00    +0.000 A 
ENDROOT
BRANCH   5   7
ATOM      7  C11 UNL     1     146.797 164.052 166.759  0.00  0.00    +0.000 A 
ATOM      8  C12 UNL     1     147.554 165.192 166.600  0.00  0.00    +0.000 A 
ATOM      9  C13 UNL     1     146.924 166.330 166.146  0.00  0.00    +0.000 A 
ATOM     10  C14 UNL     1     145.584 166.316 165.865  0.00  0.00    +0.000 A 
ATOM     11  N3  UNL     1     144.748 167.272 165.420  0.00  0.00    +0.000 N 
ATOM     12  N4  UNL     1     143.525 166.784 165.298  0.00  0.00    +0.000 NA
ATOM     13  C15 UNL     1     143.514 165.498 165.655  0.00  0.00    +0.000 A 
ATOM     14  C16 UNL     1     144.802 165.182 166.016  0.00  0.00    +0.000 A 
ATOM     15  C17 UNL     1     145.451 164.035 166.477  0.00  0.00    +0.000 A 
ATOM     16  H16 UNL     1     145.033 168.248 165.207  0.00  0.00    +0.000 HD
ENDBRANCH   5   7
BRANCH   1  17
ATOM     17  S1  UNL     1     146.620 159.021 168.093  0.00  0.00    +0.000 S 
ATOM     18  O3  UNL     1     145.853 159.065 169.379  0.00  0.00    +0.000 OA
ATOM     19  O4  UNL     1     147.676 157.951 168.249  0.00  0.00    +0.000 OA
BRANCH  17  22
ATOM     20  C4  UNL     1     146.066 158.540 165.412  0.00  0.00    +0.000 C 
ATOM     21  O2  UNL     1     147.293 158.670 165.175  0.00  0.00    +0.000 OA
ATOM     22  N2  UNL     1     145.640 158.686 166.739  0.00  0.00    +0.000 N 
ATOM     23  H9  UNL     1     144.602 158.577 166.920  0.00  0.00    +0.000 HD
BRANCH  20  24
ATOM     24  C3  UNL     1     145.146 158.248 164.317  0.00  0.00    +0.000 C 
BRANCH  24  25
ATOM     25  N1  UNL     1     143.886 157.688 164.763  0.00  0.00    +0.000 NA
ATOM     26  H7  UNL     1     143.976 157.088 165.606  0.00  0.00    +0.000 HD
ATOM     27  H8  UNL     1     143.126 158.379 164.805  0.00  0.00    +0.000 HD
ENDBRANCH  24  25
BRANCH  24  29
ATOM     28  C1  UNL     1     144.250 160.570 164.184  0.00  0.00    +0.000 C 
ATOM     29  C2  UNL     1     144.902 159.429 163.434  0.00  0.00    +0.000 C 
BRANCH  29  30
ATOM     30  O1  UNL     1     146.090 159.804 162.814  0.00  0.00    +0.000 OA
ATOM     31  H5  UNL     1     146.681 159.034 162.766  0.00  0.00    +0.000 HD
ENDBRANCH  29  30
ENDBRANCH  24  29
ENDBRANCH  20  24
ENDBRANCH  17  22
ENDBRANCH   1  17
TORSDOF 7
ENDMDL
MODEL 4
REMARK VINA RESULT:      -6.5      1.925      2.350
REMARK  Name = ./3D_structures\o68_MMV1582494_3D.pdb
REMARK  8 active torsions:
REMARK  status: ('A' for Active; 'I' for Inactive)
REMARK    1  A    between atoms: C1_1  and  C2_2
REMARK    2  A    between atoms: C2_2  and  O1_3
REMARK    3  A    between atoms: C2_2  and  C3_4
REMARK    4  A    between atoms: C3_4  and  N1_5
REMARK    5  A    between atoms: C3_4  and  C4_6
REMARK    6  A    between atoms: N2_8  and  S1_9
REMARK    7  A    between atoms: S1_9  and  C5_12
REMARK    8  A    between atoms: C9_16  and  C11_18
REMARK                            x       y       z     vdW  Elec       q    Type
REMARK                         _______ _______ _______ _____ _____    ______ ____
ROOT
ATOM      1  C5  UNL     1     150.597 159.710 169.182  0.00  0.00    +0.000 A 
ATOM      2  C6  UNL     1     149.843 158.691 169.764  0.00  0.00    +0.000 A 
ATOM      3  C7  UNL     1     150.411 157.532 170.253  0.00  0.00    +0.000 A 
ATOM      4  C8  UNL     1     151.780 157.409 170.148  0.00  0.00    +0.000 A 
ATOM      5  C9  UNL     1     152.531 158.415 169.573  0.00  0.00    +0.000 A 
ATOM      6  C10 UNL     1     151.963 159.577 169.082  0.00  0.00    +0.000 A 
ENDROOT
BRANCH   5   7
ATOM      7  C11 UNL     1     153.969 158.214 169.507  0.00  0.00    +0.000 A 
ATOM      8  C12 UNL     1     154.483 157.557 168.411  0.00  0.00    +0.000 A 
ATOM      9  C13 UNL     1     155.845 157.360 168.355  0.00  0.00    +0.000 A 
ATOM     10  C14 UNL     1     156.654 157.809 169.364  0.00  0.00    +0.000 A 
ATOM     11  N3  UNL     1     157.985 157.743 169.548  0.00  0.00    +0.000 N 
ATOM     12  N4  UNL     1     158.315 158.321 170.691  0.00  0.00    +0.000 NA
ATOM     13  C15 UNL     1     157.218 158.784 171.296  0.00  0.00    +0.000 A 
ATOM     14  C16 UNL     1     156.159 158.472 170.477  0.00  0.00    +0.000 A 
ATOM     15  C17 UNL     1     154.777 158.665 170.523  0.00  0.00    +0.000 A 
ATOM     16  H16 UNL     1     158.648 157.302 168.881  0.00  0.00    +0.000 HD
ENDBRANCH   5   7
BRANCH   1  17
ATOM     17  S1  UNL     1     149.770 161.158 168.596  0.00  0.00    +0.000 S 
ATOM     18  O3  UNL     1     150.598 161.780 167.514  0.00  0.00    +0.000 OA
ATOM     19  O4  UNL     1     149.701 162.159 169.726  0.00  0.00    +0.000 OA
BRANCH  17  22
ATOM     20  C4  UNL     1     147.208 161.623 167.622  0.00  0.00    +0.000 C 
ATOM     21  O2  UNL     1     147.488 162.847 167.582  0.00  0.00    +0.000 OA
ATOM     22  N2  UNL     1     148.198 160.744 168.082  0.00  0.00    +0.000 N 
ATOM     23  H9  UNL     1     147.944 159.717 168.113  0.00  0.00    +0.000 HD
BRANCH  20  24
ATOM     24  C3  UNL     1     145.887 161.169 167.198  0.00  0.00    +0.000 C 
BRANCH  24  25
ATOM     25  N1  UNL     1     145.935 160.046 166.284  0.00  0.00    +0.000 NA
ATOM     26  H7  UNL     1     146.641 159.331 166.546  0.00  0.00    +0.000 HD
ATOM     27  H8  UNL     1     145.006 159.670 166.053  0.00  0.00    +0.000 HD
ENDBRANCH  24  25
BRANCH  24  29
ATOM     28  C1  UNL     1     144.863 159.373 168.588  0.00  0.00    +0.000 C 
ATOM     29  C2  UNL     1     144.983 160.861 168.347  0.00  0.00    +0.000 C 
BRANCH  29  30
ATOM     30  O1  UNL     1     145.408 161.555 169.477  0.00  0.00    +0.000 OA
ATOM     31  H5  UNL     1     146.110 161.048 169.917  0.00  0.00    +0.000 HD
ENDBRANCH  29  30
ENDBRANCH  24  29
ENDBRANCH  20  24
ENDBRANCH  17  22
ENDBRANCH   1  17
TORSDOF 7
ENDMDL
MODEL 5
REMARK VINA RESULT:      -6.5      2.766      3.979
REMARK  Name = ./3D_structures\o68_MMV1582494_3D.pdb
REMARK  8 active torsions:
REMARK  status: ('A' for Active; 'I' for Inactive)
REMARK    1  A    between atoms: C1_1  and  C2_2
REMARK    2  A    between atoms: C2_2  and  O1_3
REMARK    3  A    between atoms: C2_2  and  C3_4
REMARK    4  A    between atoms: C3_4  and  N1_5
REMARK    5  A    between atoms: C3_4  and  C4_6
REMARK    6  A    between atoms: N2_8  and  S1_9
REMARK    7  A    between atoms: S1_9  and  C5_12
REMARK    8  A    between atoms: C9_16  and  C11_18
REMARK                            x       y       z     vdW  Elec       q    Type
REMARK                         _______ _______ _______ _____ _____    ______ ____
ROOT
ATOM      1  C5  UNL     1     150.623 159.936 168.905  0.00  0.00    +0.000 A 
ATOM      2  C6  UNL     1     149.806 159.021 169.570  0.00  0.00    +0.000 A 
ATOM      3  C7  UNL     1     150.307 157.906 170.211  0.00  0.00    +0.000 A 
ATOM      4  C8  UNL     1     151.673 157.719 170.174  0.00  0.00    +0.000 A 
ATOM      5  C9  UNL     1     152.485 158.622 169.518  0.00  0.00    +0.000 A 
ATOM      6  C10 UNL     1     151.985 159.741 168.875  0.00  0.00    +0.000 A 
ENDROOT
BRANCH   5   7
ATOM      7  C11 UNL     1     153.914 158.360 169.532  0.00  0.00    +0.000 A 
ATOM      8  C12 UNL     1     154.452 157.635 168.491  0.00  0.00    +0.000 A 
ATOM      9  C13 UNL     1     155.805 157.381 168.511  0.00  0.00    +0.000 A 
ATOM     10  C14 UNL     1     156.583 157.839 169.540  0.00  0.00    +0.000 A 
ATOM     11  N3  UNL     1     157.901 157.728 169.792  0.00  0.00    +0.000 N 
ATOM     12  N4  UNL     1     158.200 158.342 170.924  0.00  0.00    +0.000 NA
ATOM     13  C15 UNL     1     157.097 158.875 171.454  0.00  0.00    +0.000 A 
ATOM     14  C16 UNL     1     156.065 158.571 170.597  0.00  0.00    +0.000 A 
ATOM     15  C17 UNL     1     154.693 158.822 170.566  0.00  0.00    +0.000 A 
ATOM     16  H16 UNL     1     158.575 157.231 169.177  0.00  0.00    +0.000 HD
ENDBRANCH   5   7
BRANCH   1  17
ATOM     17  S1  UNL     1     149.879 161.337 168.125  0.00  0.00    +0.000 S 
ATOM     18  O3  UNL     1     149.084 162.090 169.147  0.00  0.00    +0.000 OA
ATOM     19  O4  UNL     1     148.899 160.841 167.087  0.00  0.00    +0.000 OA
BRANCH  17  22
ATOM     20  C4  UNL     1     151.711 162.035 166.155  0.00  0.00    +0.000 C 
ATOM     21  O2  UNL     1     151.356 161.014 165.517  0.00  0.00    +0.000 OA
ATOM     22  N2  UNL     1     151.090 162.284 167.386  0.00  0.00    +0.000 N 
ATOM     23  H9  UNL     1     151.404 163.147 167.912  0.00  0.00    +0.000 HD
BRANCH  20  24
ATOM     24  C3  UNL     1     152.740 162.912 165.602  0.00  0.00    +0.000 C 
BRANCH  24  25
ATOM     25  N1  UNL     1     153.907 162.196 165.129  0.00  0.00    +0.000 NA
ATOM     26  H7  UNL     1     154.206 161.430 165.763  0.00  0.00    +0.000 HD
ATOM     27  H8  UNL     1     153.850 161.935 164.136  0.00  0.00    +0.000 HD
ENDBRANCH  24  25
BRANCH  24  29
ATOM     28  C1  UNL     1     153.206 164.901 164.175  0.00  0.00    +0.000 C 
ATOM     29  C2  UNL     1     152.217 163.812 164.529  0.00  0.00    +0.000 C 
BRANCH  29  30
ATOM     30  O1  UNL     1     151.836 163.054 163.426  0.00  0.00    +0.000 OA
ATOM     31  H5  UNL     1     150.874 162.922 163.447  0.00  0.00    +0.000 HD
ENDBRANCH  29  30
ENDBRANCH  24  29
ENDBRANCH  20  24
ENDBRANCH  17  22
ENDBRANCH   1  17
TORSDOF 7
ENDMDL
MODEL 6
REMARK VINA RESULT:      -6.4      1.679      1.811
REMARK  Name = ./3D_structures\o68_MMV1582494_3D.pdb
REMARK  8 active torsions:
REMARK  status: ('A' for Active; 'I' for Inactive)
REMARK    1  A    between atoms: C1_1  and  C2_2
REMARK    2  A    between atoms: C2_2  and  O1_3
REMARK    3  A    between atoms: C2_2  and  C3_4
REMARK    4  A    between atoms: C3_4  and  N1_5
REMARK    5  A    between atoms: C3_4  and  C4_6
REMARK    6  A    between atoms: N2_8  and  S1_9
REMARK    7  A    between atoms: S1_9  and  C5_12
REMARK    8  A    between atoms: C9_16  and  C11_18
REMARK                            x       y       z     vdW  Elec       q    Type
REMARK                         _______ _______ _______ _____ _____    ______ ____
ROOT
ATOM      1  C5  UNL     1     150.806 160.142 168.562  0.00  0.00    +0.000 A 
ATOM      2  C6  UNL     1     149.935 159.386 169.347  0.00  0.00    +0.000 A 
ATOM      3  C7  UNL     1     150.369 158.364 170.166  0.00  0.00    +0.000 A 
ATOM      4  C8  UNL     1     151.724 158.106 170.187  0.00  0.00    +0.000 A 
ATOM      5  C9  UNL     1     152.590 158.852 169.413  0.00  0.00    +0.000 A 
ATOM      6  C10 UNL     1     152.156 159.877 168.591  0.00  0.00    +0.000 A 
ENDROOT
BRANCH   5   7
ATOM      7  C11 UNL     1     154.003 158.524 169.497  0.00  0.00    +0.000 A 
ATOM      8  C12 UNL     1     154.541 157.712 168.523  0.00  0.00    +0.000 A 
ATOM      9  C13 UNL     1     155.879 157.397 168.609  0.00  0.00    +0.000 A 
ATOM     10  C14 UNL     1     156.642 157.882 169.638  0.00  0.00    +0.000 A 
ATOM     11  N3  UNL     1     157.942 157.725 169.946  0.00  0.00    +0.000 N 
ATOM     12  N4  UNL     1     158.231 158.393 171.051  0.00  0.00    +0.000 NA
ATOM     13  C15 UNL     1     157.137 159.009 171.504  0.00  0.00    +0.000 A 
ATOM     14  C16 UNL     1     156.123 158.701 170.629  0.00  0.00    +0.000 A 
ATOM     15  C17 UNL     1     154.766 159.013 170.531  0.00  0.00    +0.000 A 
ATOM     16  H16 UNL     1     158.613 157.160 169.389  0.00  0.00    +0.000 HD
ENDBRANCH   5   7
BRANCH   1  17
ATOM     17  S1  UNL     1     150.146 161.436 167.555  0.00  0.00    +0.000 S 
ATOM     18  O3  UNL     1     150.883 161.455 166.252  0.00  0.00    +0.000 OA
ATOM     19  O4  UNL     1     150.421 162.758 168.235  0.00  0.00    +0.000 OA
BRANCH  17  22
ATOM     20  C4  UNL     1     147.454 161.750 168.177  0.00  0.00    +0.000 C 
ATOM     21  O2  UNL     1     147.802 162.476 169.141  0.00  0.00    +0.000 OA
ATOM     22  N2  UNL     1     148.465 161.209 167.371  0.00  0.00    +0.000 N 
ATOM     23  H9  UNL     1     148.155 160.596 166.566  0.00  0.00    +0.000 HD
BRANCH  20  24
ATOM     24  C3  UNL     1     146.036 161.500 167.934  0.00  0.00    +0.000 C 
BRANCH  24  25
ATOM     25  N1  UNL     1     145.274 161.306 169.151  0.00  0.00    +0.000 NA
ATOM     26  H7  UNL     1     144.505 160.616 169.050  0.00  0.00    +0.000 HD
ATOM     27  H8  UNL     1     145.863 161.176 169.983  0.00  0.00    +0.000 HD
ENDBRANCH  24  25
BRANCH  24  29
ATOM     28  C1  UNL     1     144.514 163.473 167.902  0.00  0.00    +0.000 C 
ATOM     29  C2  UNL     1     145.399 162.554 167.088  0.00  0.00    +0.000 C 
BRANCH  29  30
ATOM     30  O1  UNL     1     146.379 163.243 166.379  0.00  0.00    +0.000 OA
ATOM     31  H5  UNL     1     147.044 162.610 166.060  0.00  0.00    +0.000 HD
ENDBRANCH  29  30
ENDBRANCH  24  29
ENDBRANCH  20  24
ENDBRANCH  17  22
ENDBRANCH   1  17
TORSDOF 7
ENDMDL
MODEL 7
REMARK VINA RESULT:      -6.4      3.464      4.581
REMARK  Name = ./3D_structures\o68_MMV1582494_3D.pdb
REMARK  8 active torsions:
REMARK  status: ('A' for Active; 'I' for Inactive)
REMARK    1  A    between atoms: C1_1  and  C2_2
REMARK    2  A    between atoms: C2_2  and  O1_3
REMARK    3  A    between atoms: C2_2  and  C3_4
REMARK    4  A    between atoms: C3_4  and  N1_5
REMARK    5  A    between atoms: C3_4  and  C4_6
REMARK    6  A    between atoms: N2_8  and  S1_9
REMARK    7  A    between atoms: S1_9  and  C5_12
REMARK    8  A    between atoms: C9_16  and  C11_18
REMARK                            x       y       z     vdW  Elec       q    Type
REMARK                         _______ _______ _______ _____ _____    ______ ____
ROOT
ATOM      1  C5  UNL     1     151.198 163.694 166.215  0.00  0.00    +0.000 A 
ATOM      2  C6  UNL     1     151.547 164.035 164.908  0.00  0.00    +0.000 A 
ATOM      3  C7  UNL     1     152.415 163.277 164.148  0.00  0.00    +0.000 A 
ATOM      4  C8  UNL     1     152.939 162.144 164.734  0.00  0.00    +0.000 A 
ATOM      5  C9  UNL     1     152.596 161.802 166.027  0.00  0.00    +0.000 A 
ATOM      6  C10 UNL     1     151.727 162.561 166.790  0.00  0.00    +0.000 A 
ENDROOT
BRANCH   5   7
ATOM      7  C11 UNL     1     153.184 160.589 166.569  0.00  0.00    +0.000 A 
ATOM      8  C12 UNL     1     152.837 160.214 167.849  0.00  0.00    +0.000 A 
ATOM      9  C13 UNL     1     153.402 159.068 168.363  0.00  0.00    +0.000 A 
ATOM     10  C14 UNL     1     154.281 158.332 167.616  0.00  0.00    +0.000 A 
ATOM     11  N3  UNL     1     154.959 157.199 167.880  0.00  0.00    +0.000 N 
ATOM     12  N4  UNL     1     155.699 156.860 166.838  0.00  0.00    +0.000 NA
ATOM     13  C15 UNL     1     155.535 157.751 165.859  0.00  0.00    +0.000 A 
ATOM     14  C16 UNL     1     154.645 158.688 166.327  0.00  0.00    +0.000 A 
ATOM     15  C17 UNL     1     154.067 159.851 165.816  0.00  0.00    +0.000 A 
ATOM     16  H16 UNL     1     154.900 156.676 168.776  0.00  0.00    +0.000 HD
ENDBRANCH   5   7
BRANCH   1  17
ATOM     17  S1  UNL     1     150.070 164.730 167.097  0.00  0.00    +0.000 S 
ATOM     18  O3  UNL     1     150.590 166.134 167.076  0.00  0.00    +0.000 OA
ATOM     19  O4  UNL     1     150.048 164.291 168.543  0.00  0.00    +0.000 OA
BRANCH  17  22
ATOM     20  C4  UNL     1     147.304 164.987 166.994  0.00  0.00    +0.000 C 
ATOM     21  O2  UNL     1     147.349 165.512 168.134  0.00  0.00    +0.000 OA
ATOM     22  N2  UNL     1     148.514 164.583 166.414  0.00  0.00    +0.000 N 
ATOM     23  H9  UNL     1     148.456 164.139 165.455  0.00  0.00    +0.000 HD
BRANCH  20  24
ATOM     24  C3  UNL     1     146.016 164.822 166.326  0.00  0.00    +0.000 C 
BRANCH  24  25
ATOM     25  N1  UNL     1     144.911 164.655 167.247  0.00  0.00    +0.000 NA
ATOM     26  H7  UNL     1     144.070 164.228 166.810  0.00  0.00    +0.000 HD
ATOM     27  H8  UNL     1     145.189 164.237 168.144  0.00  0.00    +0.000 HD
ENDBRANCH  24  25
BRANCH  24  29
ATOM     28  C1  UNL     1     144.422 166.627 165.686  0.00  0.00    +0.000 C 
ATOM     29  C2  UNL     1     145.720 165.922 165.359  0.00  0.00    +0.000 C 
BRANCH  29  30
ATOM     30  O1  UNL     1     146.803 166.795 165.295  0.00  0.00    +0.000 OA
ATOM     31  H5  UNL     1     146.790 167.256 164.440  0.00  0.00    +0.000 HD
ENDBRANCH  29  30
ENDBRANCH  24  29
ENDBRANCH  20  24
ENDBRANCH  17  22
ENDBRANCH   1  17
TORSDOF 7
ENDMDL
MODEL 8
REMARK VINA RESULT:      -6.3      3.051      4.001
REMARK  Name = ./3D_structures\o68_MMV1582494_3D.pdb
REMARK  8 active torsions:
REMARK  status: ('A' for Active; 'I' for Inactive)
REMARK    1  A    between atoms: C1_1  and  C2_2
REMARK    2  A    between atoms: C2_2  and  O1_3
REMARK    3  A    between atoms: C2_2  and  C3_4
REMARK    4  A    between atoms: C3_4  and  N1_5
REMARK    5  A    between atoms: C3_4  and  C4_6
REMARK    6  A    between atoms: N2_8  and  S1_9
REMARK    7  A    between atoms: S1_9  and  C5_12
REMARK    8  A    between atoms: C9_16  and  C11_18
REMARK                            x       y       z     vdW  Elec       q    Type
REMARK                         _______ _______ _______ _____ _____    ______ ____
ROOT
ATOM      1  C5  UNL     1     151.481 161.806 166.487  0.00  0.00    +0.000 A 
ATOM      2  C6  UNL     1     151.814 162.615 165.401  0.00  0.00    +0.000 A 
ATOM      3  C7  UNL     1     152.947 162.409 164.640  0.00  0.00    +0.000 A 
ATOM      4  C8  UNL     1     153.760 161.353 164.995  0.00  0.00    +0.000 A 
ATOM      5  C9  UNL     1     153.434 160.550 166.069  0.00  0.00    +0.000 A 
ATOM      6  C10 UNL     1     152.299 160.755 166.832  0.00  0.00    +0.000 A 
ENDROOT
BRANCH   5   7
ATOM      7  C11 UNL     1     154.337 159.452 166.373  0.00  0.00    +0.000 A 
ATOM      8  C12 UNL     1     154.070 158.679 167.481  0.00  0.00    +0.000 A 
ATOM      9  C13 UNL     1     154.931 157.644 167.772  0.00  0.00    +0.000 A 
ATOM     10  C14 UNL     1     156.018 157.402 166.976  0.00  0.00    +0.000 A 
ATOM     11  N3  UNL     1     156.994 156.476 167.041  0.00  0.00    +0.000 N 
ATOM     12  N4  UNL     1     157.841 156.639 166.038  0.00  0.00    +0.000 NA
ATOM     13  C15 UNL     1     157.455 157.670 165.284  0.00  0.00    +0.000 A 
ATOM     14  C16 UNL     1     156.308 158.166 165.856  0.00  0.00    +0.000 A 
ATOM     15  C17 UNL     1     155.428 159.212 165.572  0.00  0.00    +0.000 A 
ATOM     16  H16 UNL     1     157.059 155.745 167.775  0.00  0.00    +0.000 HD
ENDBRANCH   5   7
BRANCH   1  17
ATOM     17  S1  UNL     1     150.000 162.152 167.388  0.00  0.00    +0.000 S 
ATOM     18  O3  UNL     1     150.292 162.042 168.853  0.00  0.00    +0.000 OA
ATOM     19  O4  UNL     1     148.983 161.083 167.063  0.00  0.00    +0.000 OA
BRANCH  17  22
ATOM     20  C4  UNL     1     148.215 164.283 167.368  0.00  0.00    +0.000 C 
ATOM     21  O2  UNL     1     147.494 163.636 168.168  0.00  0.00    +0.000 OA
ATOM     22  N2  UNL     1     149.407 163.686 166.936  0.00  0.00    +0.000 N 
ATOM     23  H9  UNL     1     150.000 164.243 166.259  0.00  0.00    +0.000 HD
BRANCH  20  24
ATOM     24  C3  UNL     1     147.793 165.609 166.926  0.00  0.00    +0.000 C 
BRANCH  24  25
ATOM     25  N1  UNL     1     148.700 166.207 165.967  0.00  0.00    +0.000 NA
ATOM     26  H7  UNL     1     148.268 166.371 165.037  0.00  0.00    +0.000 HD
ATOM     27  H8  UNL     1     149.223 167.007 166.346  0.00  0.00    +0.000 HD
ENDBRANCH  24  25
BRANCH  24  29
ATOM     28  C1  UNL     1     146.094 166.901 165.640  0.00  0.00    +0.000 C 
ATOM     29  C2  UNL     1     146.397 165.625 166.394  0.00  0.00    +0.000 C 
BRANCH  29  30
ATOM     30  O1  UNL     1     146.174 164.484 165.628  0.00  0.00    +0.000 OA
ATOM     31  H5  UNL     1     145.594 163.878 166.120  0.00  0.00    +0.000 HD
ENDBRANCH  29  30
ENDBRANCH  24  29
ENDBRANCH  20  24
ENDBRANCH  17  22
ENDBRANCH   1  17
TORSDOF 7
ENDMDL
MODEL 9
REMARK VINA RESULT:      -6.3      3.189      4.399
REMARK  Name = ./3D_structures\o68_MMV1582494_3D.pdb
REMARK  8 active torsions:
REMARK  status: ('A' for Active; 'I' for Inactive)
REMARK    1  A    between atoms: C1_1  and  C2_2
REMARK    2  A    between atoms: C2_2  and  O1_3
REMARK    3  A    between atoms: C2_2  and  C3_4
REMARK    4  A    between atoms: C3_4  and  N1_5
REMARK    5  A    between atoms: C3_4  and  C4_6
REMARK    6  A    between atoms: N2_8  and  S1_9
REMARK    7  A    between atoms: S1_9  and  C5_12
REMARK    8  A    between atoms: C9_16  and  C11_18
REMARK                            x       y       z     vdW  Elec       q    Type
REMARK                         _______ _______ _______ _____ _____    ______ ____
ROOT
ATOM      1  C5  UNL     1     151.482 163.923 165.762  0.00  0.00    +0.000 A 
ATOM      2  C6  UNL     1     151.861 164.125 164.434  0.00  0.00    +0.000 A 
ATOM      3  C7  UNL     1     152.670 163.241 163.749  0.00  0.00    +0.000 A 
ATOM      4  C8  UNL     1     153.103 162.124 164.432  0.00  0.00    +0.000 A 
ATOM      5  C9  UNL     1     152.731 161.920 165.746  0.00  0.00    +0.000 A 
ATOM      6  C10 UNL     1     151.920 162.805 166.434  0.00  0.00    +0.000 A 
ENDROOT
BRANCH   5   7
ATOM      7  C11 UNL     1     153.221 160.715 166.393  0.00  0.00    +0.000 A 
ATOM      8  C12 UNL     1     152.781 160.438 167.670  0.00  0.00    +0.000 A 
ATOM      9  C13 UNL     1     153.254 159.300 168.284  0.00  0.00    +0.000 A 
ATOM     10  C14 UNL     1     154.134 158.475 167.636  0.00  0.00    +0.000 A 
ATOM     11  N3  UNL     1     154.735 157.329 168.007  0.00  0.00    +0.000 N 
ATOM     12  N4  UNL     1     155.515 156.889 167.033  0.00  0.00    +0.000 NA
ATOM     13  C15 UNL     1     155.455 157.726 165.995  0.00  0.00    +0.000 A 
ATOM     14  C16 UNL     1     154.590 158.733 166.352  0.00  0.00    +0.000 A 
ATOM     15  C17 UNL     1     154.105 159.889 165.740  0.00  0.00    +0.000 A 
ATOM     16  H16 UNL     1     154.596 156.866 168.926  0.00  0.00    +0.000 HD
ENDBRANCH   5   7
BRANCH   1  17
ATOM     17  S1  UNL     1     150.434 165.113 166.542  0.00  0.00    +0.000 S 
ATOM     18  O3  UNL     1     149.715 165.889 165.482  0.00  0.00    +0.000 OA
ATOM     19  O4  UNL     1     151.303 166.096 167.292  0.00  0.00    +0.000 OA
BRANCH  17  22
ATOM     20  C4  UNL     1     148.039 164.639 167.871  0.00  0.00    +0.000 C 
ATOM     21  O2  UNL     1     147.546 165.611 167.247  0.00  0.00    +0.000 OA
ATOM     22  N2  UNL     1     149.380 164.318 167.622  0.00  0.00    +0.000 N 
ATOM     23  H9  UNL     1     149.781 163.499 168.159  0.00  0.00    +0.000 HD
BRANCH  20  24
ATOM     24  C3  UNL     1     147.213 163.892 168.815  0.00  0.00    +0.000 C 
BRANCH  24  25
ATOM     25  N1  UNL     1     147.782 162.611 169.183  0.00  0.00    +0.000 NA
ATOM     26  H7  UNL     1     148.035 162.022 168.366  0.00  0.00    +0.000 HD
ATOM     27  H8  UNL     1     148.509 162.682 169.906  0.00  0.00    +0.000 HD
ENDBRANCH  24  25
BRANCH  24  29
ATOM     28  C1  UNL     1     148.062 165.479 170.540  0.00  0.00    +0.000 C 
ATOM     29  C2  UNL     1     146.879 164.679 170.041  0.00  0.00    +0.000 C 
BRANCH  29  30
ATOM     30  O1  UNL     1     145.759 165.471 169.799  0.00  0.00    +0.000 OA
ATOM     31  H5  UNL     1     145.989 166.156 169.149  0.00  0.00    +0.000 HD
ENDBRANCH  29  30
ENDBRANCH  24  29
ENDBRANCH  20  24
ENDBRANCH  17  22
ENDBRANCH   1  17
TORSDOF 7
ENDMDL
