MODEL 1
REMARK VINA RESULT:      -7.7      0.000      0.000
REMARK  Name = ./3D_structures\o6_MMV1782109_3D.pdb
REMARK  8 active torsions:
REMARK  status: ('A' for Active; 'I' for Inactive)
REMARK    1  A    between atoms: C1_2  and  C20_26
REMARK    2  A    between atoms: N1_3  and  C2_4
REMARK    3  A    between atoms: C2_4  and  C3_5
REMARK    4  A    between atoms: C2_4  and  C9_15
REMARK    5  A    between atoms: N2_7  and  C4_8
REMARK    6  A    between atoms: C4_8  and  C5_9
REMARK    7  A    between atoms: C5_9  and  C6_10
REMARK    8  A    between atoms: C9_15  and  C10_16
REMARK                            x       y       z     vdW  Elec       q    Type
REMARK                         _______ _______ _______ _____ _____    ______ ____
ROOT
ATOM      1  C2  UNL     1     156.480 156.990 165.592  0.00  0.00    +0.000 C 
ENDROOT
BRANCH   1   4
ATOM      2  O1  UNL     1     154.179 157.736 166.918  0.00  0.00    +0.000 OA
ATOM      3  C1  UNL     1     154.798 158.670 166.368  0.00  0.00    +0.000 C 
ATOM      4  N1  UNL     1     156.000 158.337 165.662  0.00  0.00    +0.000 N 
ATOM      5  H1  UNL     1     156.480 159.125 165.225  0.00  0.00    +0.000 HD
BRANCH   3   6
ATOM      6  C20 UNL     1     154.264 160.044 166.473  0.00  0.00    +0.000 C 
ATOM      7  C21 UNL     1     152.955 160.232 165.810  0.00  0.00    +0.000 C 
ATOM      8  C22 UNL     1     153.100 161.475 165.012  0.00  0.00    +0.000 A 
ATOM      9  C23 UNL     1     154.399 161.915 165.051  0.00  0.00    +0.000 A 
ATOM     10  C24 UNL     1     155.207 161.011 165.863  0.00  0.00    +0.000 C 
ATOM     11  C25 UNL     1     154.811 163.066 164.384  0.00  0.00    +0.000 A 
ATOM     12  C26 UNL     1     153.918 163.808 163.654  0.00  0.00    +0.000 A 
ATOM     13  C27 UNL     1     152.609 163.384 163.602  0.00  0.00    +0.000 A 
ATOM     14  C28 UNL     1     152.202 162.244 164.265  0.00  0.00    +0.000 A 
ENDBRANCH   3   6
ENDBRANCH   1   4
BRANCH   1  15
ATOM     15  C3  UNL     1     157.180 156.746 164.270  0.00  0.00    +0.000 C 
ATOM     16  O2  UNL     1     157.774 157.669 163.659  0.00  0.00    +0.000 OA
ATOM     17  N2  UNL     1     157.190 155.456 163.670  0.00  0.00    +0.000 N 
ATOM     18  H3  UNL     1     156.681 154.683 164.204  0.00  0.00    +0.000 HD
BRANCH  17  19
ATOM     19  C4  UNL     1     157.830 155.140 162.423  0.00  0.00    +0.000 C 
BRANCH  19  20
ATOM     20  C5  UNL     1     157.705 153.683 162.042  0.00  0.00    +0.000 C 
BRANCH  20  21
ATOM     21  C6  UNL     1     158.299 152.805 163.084  0.00  0.00    +0.000 A 
ATOM     22  C7  UNL     1     159.596 152.344 163.080  0.00  0.00    +0.000 A 
ATOM     23  N3  UNL     1     159.781 151.578 164.184  0.00  0.00    +0.000 N 
ATOM     24  C8  UNL     1     158.630 151.553 164.874  0.00  0.00    +0.000 A 
ATOM     25  N4  UNL     1     157.737 152.301 164.198  0.00  0.00    +0.000 NA
ATOM     26  H9  UNL     1     160.658 151.083 164.471  0.00  0.00    +0.000 HD
ENDBRANCH  20  21
ENDBRANCH  19  20
ENDBRANCH  17  19
ENDBRANCH   1  15
BRANCH   1  27
ATOM     27  C9  UNL     1     157.242 156.482 166.734  0.00  0.00    +0.000 C 
BRANCH  27  28
ATOM     28  C10 UNL     1     157.996 157.376 167.574  0.00  0.00    +0.000 A 
ATOM     29  C11 UNL     1     159.155 158.036 167.280  0.00  0.00    +0.000 A 
ATOM     30  C12 UNL     1     159.820 158.882 168.164  0.00  0.00    +0.000 A 
ATOM     31  C13 UNL     1     159.308 159.084 169.406  0.00  0.00    +0.000 A 
ATOM     32  C14 UNL     1     158.132 158.432 169.745  0.00  0.00    +0.000 A 
ATOM     33  C15 UNL     1     157.620 158.648 171.029  0.00  0.00    +0.000 A 
ATOM     34  C16 UNL     1     156.460 158.027 171.426  0.00  0.00    +0.000 A 
ATOM     35  C17 UNL     1     155.795 157.188 170.559  0.00  0.00    +0.000 A 
ATOM     36  C18 UNL     1     156.324 156.996 169.300  0.00  0.00    +0.000 A 
ATOM     37  C19 UNL     1     157.483 157.597 168.860  0.00  0.00    +0.000 A 
ENDBRANCH  27  28
ENDBRANCH   1  27
TORSDOF 8
ENDMDL
MODEL 2
REMARK VINA RESULT:      -7.7      2.138      5.248
REMARK  Name = ./3D_structures\o6_MMV1782109_3D.pdb
REMARK  8 active torsions:
REMARK  status: ('A' for Active; 'I' for Inactive)
REMARK    1  A    between atoms: C1_2  and  C20_26
REMARK    2  A    between atoms: N1_3  and  C2_4
REMARK    3  A    between atoms: C2_4  and  C3_5
REMARK    4  A    between atoms: C2_4  and  C9_15
REMARK    5  A    between atoms: N2_7  and  C4_8
REMARK    6  A    between atoms: C4_8  and  C5_9
REMARK    7  A    between atoms: C5_9  and  C6_10
REMARK    8  A    between atoms: C9_15  and  C10_16
REMARK                            x       y       z     vdW  Elec       q    Type
REMARK                         _______ _______ _______ _____ _____    ______ ____
ROOT
ATOM      1  C2  UNL     1     157.593 157.693 166.303  0.00  0.00    +0.000 C 
ENDROOT
BRANCH   1   4
ATOM      2  O1  UNL     1     158.001 160.048 167.680  0.00  0.00    +0.000 OA
ATOM      3  C1  UNL     1     158.000 159.017 168.384  0.00  0.00    +0.000 C 
ATOM      4  N1  UNL     1     157.795 157.766 167.718  0.00  0.00    +0.000 N 
ATOM      5  H1  UNL     1     157.801 156.944 168.325  0.00  0.00    +0.000 HD
BRANCH   3   6
ATOM      6  C20 UNL     1     158.209 159.146 169.842  0.00  0.00    +0.000 C 
ATOM      7  C21 UNL     1     157.232 158.392 170.657  0.00  0.00    +0.000 C 
ATOM      8  C22 UNL     1     156.779 159.347 171.699  0.00  0.00    +0.000 A 
ATOM      9  C23 UNL     1     157.296 160.595 171.456  0.00  0.00    +0.000 A 
ATOM     10  C24 UNL     1     158.118 160.567 170.251  0.00  0.00    +0.000 C 
ATOM     11  C25 UNL     1     157.027 161.681 172.285  0.00  0.00    +0.000 A 
ATOM     12  C26 UNL     1     156.223 161.538 173.387  0.00  0.00    +0.000 A 
ATOM     13  C27 UNL     1     155.694 160.294 173.648  0.00  0.00    +0.000 A 
ATOM     14  C28 UNL     1     155.962 159.219 172.827  0.00  0.00    +0.000 A 
ENDBRANCH   3   6
ENDBRANCH   1   4
BRANCH   1  15
ATOM     15  C3  UNL     1     158.509 156.653 165.689  0.00  0.00    +0.000 C 
ATOM     16  O2  UNL     1     159.708 156.910 165.419  0.00  0.00    +0.000 OA
ATOM     17  N2  UNL     1     158.040 155.343 165.395  0.00  0.00    +0.000 N 
ATOM     18  H3  UNL     1     157.017 155.142 165.631  0.00  0.00    +0.000 HD
BRANCH  17  19
ATOM     19  C4  UNL     1     158.841 154.300 164.815  0.00  0.00    +0.000 C 
BRANCH  19  20
ATOM     20  C5  UNL     1     158.074 153.429 163.846  0.00  0.00    +0.000 C 
BRANCH  20  21
ATOM     21  C6  UNL     1     158.027 152.020 164.318  0.00  0.00    +0.000 A 
ATOM     22  C7  UNL     1     156.939 151.186 164.196  0.00  0.00    +0.000 A 
ATOM     23  N3  UNL     1     157.261 149.982 164.733  0.00  0.00    +0.000 N 
ATOM     24  C8  UNL     1     158.524 150.050 165.183  0.00  0.00    +0.000 A 
ATOM     25  N4  UNL     1     158.979 151.291 164.926  0.00  0.00    +0.000 NA
ATOM     26  H9  UNL     1     156.652 149.133 164.796  0.00  0.00    +0.000 HD
ENDBRANCH  20  21
ENDBRANCH  19  20
ENDBRANCH  17  19
ENDBRANCH   1  15
BRANCH   1  27
ATOM     27  C9  UNL     1     156.214 157.583 165.820  0.00  0.00    +0.000 C 
BRANCH  27  28
ATOM     28  C10 UNL     1     155.295 158.683 165.954  0.00  0.00    +0.000 A 
ATOM     29  C11 UNL     1     155.152 159.767 165.136  0.00  0.00    +0.000 A 
ATOM     30  C12 UNL     1     154.233 160.792 165.348  0.00  0.00    +0.000 A 
ATOM     31  C13 UNL     1     153.414 160.738 166.430  0.00  0.00    +0.000 A 
ATOM     32  C14 UNL     1     153.527 159.654 167.286  0.00  0.00    +0.000 A 
ATOM     33  C15 UNL     1     152.678 159.615 168.398  0.00  0.00    +0.000 A 
ATOM     34  C16 UNL     1     152.745 158.569 169.286  0.00  0.00    +0.000 A 
ATOM     35  C17 UNL     1     153.651 157.550 169.084  0.00  0.00    +0.000 A 
ATOM     36  C18 UNL     1     154.474 157.615 167.980  0.00  0.00    +0.000 A 
ATOM     37  C19 UNL     1     154.441 158.645 167.065  0.00  0.00    +0.000 A 
ENDBRANCH  27  28
ENDBRANCH   1  27
TORSDOF 8
ENDMDL
MODEL 3
REMARK VINA RESULT:      -7.4      2.064      3.234
REMARK  Name = ./3D_structures\o6_MMV1782109_3D.pdb
REMARK  8 active torsions:
REMARK  status: ('A' for Active; 'I' for Inactive)
REMARK    1  A    between atoms: C1_2  and  C20_26
REMARK    2  A    between atoms: N1_3  and  C2_4
REMARK    3  A    between atoms: C2_4  and  C3_5
REMARK    4  A    between atoms: C2_4  and  C9_15
REMARK    5  A    between atoms: N2_7  and  C4_8
REMARK    6  A    between atoms: C4_8  and  C5_9
REMARK    7  A    between atoms: C5_9  and  C6_10
REMARK    8  A    between atoms: C9_15  and  C10_16
REMARK                            x       y       z     vdW  Elec       q    Type
REMARK                         _______ _______ _______ _____ _____    ______ ____
ROOT
ATOM      1  C2  UNL     1     158.532 157.940 167.697  0.00  0.00    +0.000 C 
ENDROOT
BRANCH   1   4
ATOM      2  O1  UNL     1     156.321 156.454 168.414  0.00  0.00    +0.000 OA
ATOM      3  C1  UNL     1     156.073 157.495 167.771  0.00  0.00    +0.000 C 
ATOM      4  N1  UNL     1     157.186 158.302 167.371  0.00  0.00    +0.000 N 
ATOM      5  H1  UNL     1     156.946 159.146 166.847  0.00  0.00    +0.000 HD
BRANCH   3   6
ATOM      6  C20 UNL     1     154.666 157.828 167.464  0.00  0.00    +0.000 C 
ATOM      7  C21 UNL     1     154.470 158.432 166.129  0.00  0.00    +0.000 C 
ATOM      8  C22 UNL     1     153.599 159.612 166.361  0.00  0.00    +0.000 A 
ATOM      9  C23 UNL     1     153.412 159.806 167.707  0.00  0.00    +0.000 A 
ATOM     10  C24 UNL     1     154.135 158.788 168.461  0.00  0.00    +0.000 C 
ATOM     11  C25 UNL     1     152.634 160.848 168.203  0.00  0.00    +0.000 A 
ATOM     12  C26 UNL     1     152.019 161.729 167.350  0.00  0.00    +0.000 A 
ATOM     13  C27 UNL     1     152.194 161.552 165.995  0.00  0.00    +0.000 A 
ATOM     14  C28 UNL     1     152.965 160.518 165.506  0.00  0.00    +0.000 A 
ENDBRANCH   3   6
ENDBRANCH   1   4
BRANCH   1  15
ATOM     15  C3  UNL     1     159.448 158.183 166.513  0.00  0.00    +0.000 C 
ATOM     16  O2  UNL     1     160.603 158.652 166.661  0.00  0.00    +0.000 OA
ATOM     17  N2  UNL     1     159.028 157.888 165.186  0.00  0.00    +0.000 N 
ATOM     18  H3  UNL     1     158.043 157.489 165.080  0.00  0.00    +0.000 HD
BRANCH  17  19
ATOM     19  C4  UNL     1     159.832 158.087 164.013  0.00  0.00    +0.000 C 
BRANCH  19  20
ATOM     20  C5  UNL     1     159.488 157.139 162.887  0.00  0.00    +0.000 C 
BRANCH  20  21
ATOM     21  C6  UNL     1     158.879 155.888 163.410  0.00  0.00    +0.000 A 
ATOM     22  C7  UNL     1     157.634 155.414 163.064  0.00  0.00    +0.000 A 
ATOM     23  N3  UNL     1     157.417 154.253 163.732  0.00  0.00    +0.000 N 
ATOM     24  C8  UNL     1     158.500 153.995 164.483  0.00  0.00    +0.000 A 
ATOM     25  N4  UNL     1     159.380 154.994 164.280  0.00  0.00    +0.000 NA
ATOM     26  H9  UNL     1     156.566 153.646 163.686  0.00  0.00    +0.000 HD
ENDBRANCH  20  21
ENDBRANCH  19  20
ENDBRANCH  17  19
ENDBRANCH   1  15
BRANCH   1  27
ATOM     27  C9  UNL     1     159.088 158.452 168.951  0.00  0.00    +0.000 C 
BRANCH  27  28
ATOM     28  C10 UNL     1     158.698 159.742 169.458  0.00  0.00    +0.000 A 
ATOM     29  C11 UNL     1     159.112 160.974 169.038  0.00  0.00    +0.000 A 
ATOM     30  C12 UNL     1     158.682 162.176 169.595  0.00  0.00    +0.000 A 
ATOM     31  C13 UNL     1     157.796 162.154 170.624  0.00  0.00    +0.000 A 
ATOM     32  C14 UNL     1     157.350 160.923 171.080  0.00  0.00    +0.000 A 
ATOM     33  C15 UNL     1     156.440 160.918 172.143  0.00  0.00    +0.000 A 
ATOM     34  C16 UNL     1     155.964 159.730 172.643  0.00  0.00    +0.000 A 
ATOM     35  C17 UNL     1     156.383 158.536 172.098  0.00  0.00    +0.000 A 
ATOM     36  C18 UNL     1     157.281 158.572 171.052  0.00  0.00    +0.000 A 
ATOM     37  C19 UNL     1     157.783 159.740 170.520  0.00  0.00    +0.000 A 
ENDBRANCH  27  28
ENDBRANCH   1  27
TORSDOF 8
ENDMDL
MODEL 4
REMARK VINA RESULT:      -7.4      3.638      5.285
REMARK  Name = ./3D_structures\o6_MMV1782109_3D.pdb
REMARK  8 active torsions:
REMARK  status: ('A' for Active; 'I' for Inactive)
REMARK    1  A    between atoms: C1_2  and  C20_26
REMARK    2  A    between atoms: N1_3  and  C2_4
REMARK    3  A    between atoms: C2_4  and  C3_5
REMARK    4  A    between atoms: C2_4  and  C9_15
REMARK    5  A    between atoms: N2_7  and  C4_8
REMARK    6  A    between atoms: C4_8  and  C5_9
REMARK    7  A    between atoms: C5_9  and  C6_10
REMARK    8  A    between atoms: C9_15  and  C10_16
REMARK                            x       y       z     vdW  Elec       q    Type
REMARK                         _______ _______ _______ _____ _____    ______ ____
ROOT
ATOM      1  C2  UNL     1     158.840 158.053 167.656  0.00  0.00    +0.000 C 
ENDROOT
BRANCH   1   4
ATOM      2  O1  UNL     1     156.715 156.418 168.306  0.00  0.00    +0.000 OA
ATOM      3  C1  UNL     1     156.422 157.417 167.617  0.00  0.00    +0.000 C 
ATOM      4  N1  UNL     1     157.489 158.298 167.249  0.00  0.00    +0.000 N 
ATOM      5  H1  UNL     1     157.212 159.105 166.685  0.00  0.00    +0.000 HD
BRANCH   3   6
ATOM      6  C20 UNL     1     155.012 157.628 167.226  0.00  0.00    +0.000 C 
ATOM      7  C21 UNL     1     154.844 158.419 165.988  0.00  0.00    +0.000 C 
ATOM      8  C22 UNL     1     153.809 159.432 166.313  0.00  0.00    +0.000 A 
ATOM      9  C23 UNL     1     153.491 159.375 167.647  0.00  0.00    +0.000 A 
ATOM     10  C24 UNL     1     154.281 158.338 168.302  0.00  0.00    +0.000 C 
ATOM     11  C25 UNL     1     152.545 160.221 168.219  0.00  0.00    +0.000 A 
ATOM     12  C26 UNL     1     151.888 161.152 167.456  0.00  0.00    +0.000 A 
ATOM     13  C27 UNL     1     152.192 161.226 166.114  0.00  0.00    +0.000 A 
ATOM     14  C28 UNL     1     153.130 160.387 165.550  0.00  0.00    +0.000 A 
ENDBRANCH   3   6
ENDBRANCH   1   4
BRANCH   1  15
ATOM     15  C3  UNL     1     159.808 158.524 166.588  0.00  0.00    +0.000 C 
ATOM     16  O2  UNL     1     159.429 159.228 165.621  0.00  0.00    +0.000 OA
ATOM     17  N2  UNL     1     161.188 158.181 166.645  0.00  0.00    +0.000 N 
ATOM     18  H3  UNL     1     161.492 157.582 167.476  0.00  0.00    +0.000 HD
BRANCH  17  19
ATOM     19  C4  UNL     1     162.170 158.586 165.678  0.00  0.00    +0.000 C 
BRANCH  19  20
ATOM     20  C5  UNL     1     162.970 159.793 166.110  0.00  0.00    +0.000 C 
BRANCH  20  21
ATOM     21  C6  UNL     1     163.875 159.457 167.240  0.00  0.00    +0.000 A 
ATOM     22  C7  UNL     1     164.468 160.377 168.074  0.00  0.00    +0.000 A 
ATOM     23  N3  UNL     1     165.220 159.708 168.984  0.00  0.00    +0.000 N 
ATOM     24  C8  UNL     1     165.106 158.393 168.735  0.00  0.00    +0.000 A 
ATOM     25  N4  UNL     1     164.288 158.253 167.674  0.00  0.00    +0.000 NA
ATOM     26  H9  UNL     1     165.795 160.119 169.756  0.00  0.00    +0.000 HD
ENDBRANCH  20  21
ENDBRANCH  19  20
ENDBRANCH  17  19
ENDBRANCH   1  15
BRANCH   1  27
ATOM     27  C9  UNL     1     159.231 158.485 168.999  0.00  0.00    +0.000 C 
BRANCH  27  28
ATOM     28  C10 UNL     1     158.796 159.753 169.523  0.00  0.00    +0.000 A 
ATOM     29  C11 UNL     1     159.203 161.003 169.154  0.00  0.00    +0.000 A 
ATOM     30  C12 UNL     1     158.728 162.182 169.724  0.00  0.00    +0.000 A 
ATOM     31  C13 UNL     1     157.799 162.116 170.713  0.00  0.00    +0.000 A 
ATOM     32  C14 UNL     1     157.358 160.865 171.117  0.00  0.00    +0.000 A 
ATOM     33  C15 UNL     1     156.404 160.814 172.139  0.00  0.00    +0.000 A 
ATOM     34  C16 UNL     1     155.930 159.604 172.587  0.00  0.00    +0.000 A 
ATOM     35  C17 UNL     1     156.395 158.433 172.029  0.00  0.00    +0.000 A 
ATOM     36  C18 UNL     1     157.335 158.515 171.023  0.00  0.00    +0.000 A 
ATOM     37  C19 UNL     1     157.837 159.706 170.544  0.00  0.00    +0.000 A 
ENDBRANCH  27  28
ENDBRANCH   1  27
TORSDOF 8
ENDMDL
MODEL 5
REMARK VINA RESULT:      -7.3      5.313      9.889
REMARK  Name = ./3D_structures\o6_MMV1782109_3D.pdb
REMARK  8 active torsions:
REMARK  status: ('A' for Active; 'I' for Inactive)
REMARK    1  A    between atoms: C1_2  and  C20_26
REMARK    2  A    between atoms: N1_3  and  C2_4
REMARK    3  A    between atoms: C2_4  and  C3_5
REMARK    4  A    between atoms: C2_4  and  C9_15
REMARK    5  A    between atoms: N2_7  and  C4_8
REMARK    6  A    between atoms: C4_8  and  C5_9
REMARK    7  A    between atoms: C5_9  and  C6_10
REMARK    8  A    between atoms: C9_15  and  C10_16
REMARK                            x       y       z     vdW  Elec       q    Type
REMARK                         _______ _______ _______ _____ _____    ______ ____
ROOT
ATOM      1  C2  UNL     1     151.947 161.676 170.195  0.00  0.00    +0.000 C 
ENDROOT
BRANCH   1   4
ATOM      2  O1  UNL     1     153.277 160.037 171.972  0.00  0.00    +0.000 OA
ATOM      3  C1  UNL     1     154.010 160.784 171.292  0.00  0.00    +0.000 C 
ATOM      4  N1  UNL     1     153.370 161.658 170.355  0.00  0.00    +0.000 N 
ATOM      5  H1  UNL     1     154.000 162.255 169.816  0.00  0.00    +0.000 HD
BRANCH   3   6
ATOM      6  C20 UNL     1     155.474 160.725 171.490  0.00  0.00    +0.000 C 
ATOM      7  C21 UNL     1     156.244 161.539 170.525  0.00  0.00    +0.000 C 
ATOM      8  C22 UNL     1     157.329 160.647 170.045  0.00  0.00    +0.000 A 
ATOM      9  C23 UNL     1     157.153 159.378 170.537  0.00  0.00    +0.000 A 
ATOM     10  C24 UNL     1     155.953 159.328 171.366  0.00  0.00    +0.000 C 
ATOM     11  C25 UNL     1     158.032 158.341 170.240  0.00  0.00    +0.000 A 
ATOM     12  C26 UNL     1     159.121 158.556 169.434  0.00  0.00    +0.000 A 
ATOM     13  C27 UNL     1     159.316 159.823 168.930  0.00  0.00    +0.000 A 
ATOM     14  C28 UNL     1     158.444 160.850 169.226  0.00  0.00    +0.000 A 
ENDBRANCH   3   6
ENDBRANCH   1   4
BRANCH   1  15
ATOM     15  C3  UNL     1     151.439 163.103 170.132  0.00  0.00    +0.000 C 
ATOM     16  O2  UNL     1     152.226 164.080 170.096  0.00  0.00    +0.000 OA
ATOM     17  N2  UNL     1     150.045 163.386 170.110  0.00  0.00    +0.000 N 
ATOM     18  H3  UNL     1     149.391 162.542 170.140  0.00  0.00    +0.000 HD
BRANCH  17  19
ATOM     19  C4  UNL     1     149.482 164.706 170.050  0.00  0.00    +0.000 C 
BRANCH  19  20
ATOM     20  C5  UNL     1     148.435 164.858 168.970  0.00  0.00    +0.000 C 
BRANCH  20  21
ATOM     21  C6  UNL     1     149.063 165.165 167.657  0.00  0.00    +0.000 A 
ATOM     22  C7  UNL     1     148.525 165.997 166.703  0.00  0.00    +0.000 A 
ATOM     23  N3  UNL     1     149.373 166.039 165.644  0.00  0.00    +0.000 N 
ATOM     24  C8  UNL     1     150.425 165.252 165.921  0.00  0.00    +0.000 A 
ATOM     25  N4  UNL     1     150.227 164.727 167.144  0.00  0.00    +0.000 NA
ATOM     26  H9  UNL     1     149.252 166.582 164.757  0.00  0.00    +0.000 HD
ENDBRANCH  20  21
ENDBRANCH  19  20
ENDBRANCH  17  19
ENDBRANCH   1  15
BRANCH   1  27
ATOM     27  C9  UNL     1     151.372 160.828 169.150  0.00  0.00    +0.000 C 
BRANCH  27  28
ATOM     28  C10 UNL     1     151.950 160.786 167.832  0.00  0.00    +0.000 A 
ATOM     29  C11 UNL     1     151.679 161.594 166.765  0.00  0.00    +0.000 A 
ATOM     30  C12 UNL     1     152.288 161.475 165.518  0.00  0.00    +0.000 A 
ATOM     31  C13 UNL     1     153.216 160.503 165.319  0.00  0.00    +0.000 A 
ATOM     32  C14 UNL     1     153.521 159.662 166.378  0.00  0.00    +0.000 A 
ATOM     33  C15 UNL     1     154.476 158.663 166.156  0.00  0.00    +0.000 A 
ATOM     34  C16 UNL     1     154.819 157.795 167.164  0.00  0.00    +0.000 A 
ATOM     35  C17 UNL     1     154.221 157.904 168.401  0.00  0.00    +0.000 A 
ATOM     36  C18 UNL     1     153.284 158.898 168.590  0.00  0.00    +0.000 A 
ATOM     37  C19 UNL     1     152.911 159.789 167.608  0.00  0.00    +0.000 A 
ENDBRANCH  27  28
ENDBRANCH   1  27
TORSDOF 8
ENDMDL
MODEL 6
REMARK VINA RESULT:      -7.2      1.741      5.831
REMARK  Name = ./3D_structures\o6_MMV1782109_3D.pdb
REMARK  8 active torsions:
REMARK  status: ('A' for Active; 'I' for Inactive)
REMARK    1  A    between atoms: C1_2  and  C20_26
REMARK    2  A    between atoms: N1_3  and  C2_4
REMARK    3  A    between atoms: C2_4  and  C3_5
REMARK    4  A    between atoms: C2_4  and  C9_15
REMARK    5  A    between atoms: N2_7  and  C4_8
REMARK    6  A    between atoms: C4_8  and  C5_9
REMARK    7  A    between atoms: C5_9  and  C6_10
REMARK    8  A    between atoms: C9_15  and  C10_16
REMARK                            x       y       z     vdW  Elec       q    Type
REMARK                         _______ _______ _______ _____ _____    ______ ____
ROOT
ATOM      1  C2  UNL     1     157.736 157.891 165.630  0.00  0.00    +0.000 C 
ENDROOT
BRANCH   1   4
ATOM      2  O1  UNL     1     159.892 158.937 166.997  0.00  0.00    +0.000 OA
ATOM      3  C1  UNL     1     158.894 158.680 167.701  0.00  0.00    +0.000 C 
ATOM      4  N1  UNL     1     157.746 158.132 167.041  0.00  0.00    +0.000 N 
ATOM      5  H1  UNL     1     156.949 157.935 167.648  0.00  0.00    +0.000 HD
BRANCH   3   6
ATOM      6  C20 UNL     1     158.953 158.952 169.153  0.00  0.00    +0.000 C 
ATOM      7  C21 UNL     1     158.142 158.024 169.971  0.00  0.00    +0.000 C 
ATOM      8  C22 UNL     1     157.382 158.892 170.904  0.00  0.00    +0.000 A 
ATOM      9  C23 UNL     1     157.580 160.214 170.590  0.00  0.00    +0.000 A 
ATOM     10  C24 UNL     1     158.470 160.323 169.439  0.00  0.00    +0.000 C 
ATOM     11  C25 UNL     1     156.980 161.243 171.311  0.00  0.00    +0.000 A 
ATOM     12  C26 UNL     1     156.160 160.966 172.374  0.00  0.00    +0.000 A 
ATOM     13  C27 UNL     1     155.948 159.646 172.706  0.00  0.00    +0.000 A 
ATOM     14  C28 UNL     1     156.543 158.628 171.992  0.00  0.00    +0.000 A 
ENDBRANCH   3   6
ENDBRANCH   1   4
BRANCH   1  15
ATOM     15  C3  UNL     1     157.310 156.465 165.339  0.00  0.00    +0.000 C 
ATOM     16  O2  UNL     1     156.220 156.006 165.761  0.00  0.00    +0.000 OA
ATOM     17  N2  UNL     1     158.134 155.593 164.576  0.00  0.00    +0.000 N 
ATOM     18  H3  UNL     1     159.057 156.001 164.225  0.00  0.00    +0.000 HD
BRANCH  17  19
ATOM     19  C4  UNL     1     157.805 154.232 164.255  0.00  0.00    +0.000 C 
BRANCH  19  20
ATOM     20  C5  UNL     1     158.976 153.286 164.400  0.00  0.00    +0.000 C 
BRANCH  20  21
ATOM     21  C6  UNL     1     158.511 151.893 164.631  0.00  0.00    +0.000 A 
ATOM     22  C7  UNL     1     157.336 151.365 164.148  0.00  0.00    +0.000 A 
ATOM     23  N3  UNL     1     157.248 150.073 164.554  0.00  0.00    +0.000 N 
ATOM     24  C8  UNL     1     158.343 149.787 165.277  0.00  0.00    +0.000 A 
ATOM     25  N4  UNL     1     159.102 150.899 165.317  0.00  0.00    +0.000 NA
ATOM     26  H9  UNL     1     156.475 149.398 164.352  0.00  0.00    +0.000 HD
ENDBRANCH  20  21
ENDBRANCH  19  20
ENDBRANCH  17  19
ENDBRANCH   1  15
BRANCH   1  27
ATOM     27  C9  UNL     1     157.049 158.866 164.781  0.00  0.00    +0.000 C 
BRANCH  27  28
ATOM     28  C10 UNL     1     155.816 159.476 165.206  0.00  0.00    +0.000 A 
ATOM     29  C11 UNL     1     154.812 158.922 165.947  0.00  0.00    +0.000 A 
ATOM     30  C12 UNL     1     153.645 159.591 166.309  0.00  0.00    +0.000 A 
ATOM     31  C13 UNL     1     153.465 160.878 165.913  0.00  0.00    +0.000 A 
ATOM     32  C14 UNL     1     154.462 161.478 165.159  0.00  0.00    +0.000 A 
ATOM     33  C15 UNL     1     154.259 162.803 164.757  0.00  0.00    +0.000 A 
ATOM     34  C16 UNL     1     155.208 163.452 164.004  0.00  0.00    +0.000 A 
ATOM     35  C17 UNL     1     156.366 162.798 163.642  0.00  0.00    +0.000 A 
ATOM     36  C18 UNL     1     156.537 161.493 164.053  0.00  0.00    +0.000 A 
ATOM     37  C19 UNL     1     155.613 160.805 164.808  0.00  0.00    +0.000 A 
ENDBRANCH  27  28
ENDBRANCH   1  27
TORSDOF 8
ENDMDL
MODEL 7
REMARK VINA RESULT:      -7.1      2.118      5.236
REMARK  Name = ./3D_structures\o6_MMV1782109_3D.pdb
REMARK  8 active torsions:
REMARK  status: ('A' for Active; 'I' for Inactive)
REMARK    1  A    between atoms: C1_2  and  C20_26
REMARK    2  A    between atoms: N1_3  and  C2_4
REMARK    3  A    between atoms: C2_4  and  C3_5
REMARK    4  A    between atoms: C2_4  and  C9_15
REMARK    5  A    between atoms: N2_7  and  C4_8
REMARK    6  A    between atoms: C4_8  and  C5_9
REMARK    7  A    between atoms: C5_9  and  C6_10
REMARK    8  A    between atoms: C9_15  and  C10_16
REMARK                            x       y       z     vdW  Elec       q    Type
REMARK                         _______ _______ _______ _____ _____    ______ ____
ROOT
ATOM      1  C2  UNL     1     159.109 157.878 165.472  0.00  0.00    +0.000 C 
ENDROOT
BRANCH   1   4
ATOM      2  O1  UNL     1     159.182 160.142 167.047  0.00  0.00    +0.000 OA
ATOM      3  C1  UNL     1     159.142 159.064 167.674  0.00  0.00    +0.000 C 
ATOM      4  N1  UNL     1     159.106 157.856 166.904  0.00  0.00    +0.000 N 
ATOM      5  H1  UNL     1     159.074 156.993 167.450  0.00  0.00    +0.000 HD
BRANCH   3   6
ATOM      6  C20 UNL     1     159.136 159.094 169.152  0.00  0.00    +0.000 C 
ATOM      7  C21 UNL     1     158.267 158.069 169.770  0.00  0.00    +0.000 C 
ATOM      8  C22 UNL     1     157.482 158.797 170.798  0.00  0.00    +0.000 A 
ATOM      9  C23 UNL     1     157.724 160.145 170.714  0.00  0.00    +0.000 A 
ATOM     10  C24 UNL     1     158.671 160.414 169.637  0.00  0.00    +0.000 C 
ATOM     11  C25 UNL     1     157.112 161.061 171.566  0.00  0.00    +0.000 A 
ATOM     12  C26 UNL     1     156.235 160.639 172.532  0.00  0.00    +0.000 A 
ATOM     13  C27 UNL     1     155.979 159.290 172.634  0.00  0.00    +0.000 A 
ATOM     14  C28 UNL     1     156.586 158.384 171.789  0.00  0.00    +0.000 A 
ENDBRANCH   3   6
ENDBRANCH   1   4
BRANCH   1  15
ATOM     15  C3  UNL     1     160.128 156.896 164.929  0.00  0.00    +0.000 C 
ATOM     16  O2  UNL     1     161.302 157.250 164.658  0.00  0.00    +0.000 OA
ATOM     17  N2  UNL     1     159.789 155.533 164.705  0.00  0.00    +0.000 N 
ATOM     18  H3  UNL     1     158.786 155.251 164.942  0.00  0.00    +0.000 HD
BRANCH  17  19
ATOM     19  C4  UNL     1     160.693 154.540 164.195  0.00  0.00    +0.000 C 
BRANCH  19  20
ATOM     20  C5  UNL     1     160.207 153.892 162.919  0.00  0.00    +0.000 C 
BRANCH  20  21
ATOM     21  C6  UNL     1     158.841 153.332 163.091  0.00  0.00    +0.000 A 
ATOM     22  C7  UNL     1     157.815 153.465 162.184  0.00  0.00    +0.000 A 
ATOM     23  N3  UNL     1     156.724 152.826 162.674  0.00  0.00    +0.000 N 
ATOM     24  C8  UNL     1     157.049 152.298 163.865  0.00  0.00    +0.000 A 
ATOM     25  N4  UNL     1     158.336 152.611 164.108  0.00  0.00    +0.000 NA
ATOM     26  H9  UNL     1     155.783 152.742 162.223  0.00  0.00    +0.000 HD
ENDBRANCH  20  21
ENDBRANCH  19  20
ENDBRANCH  17  19
ENDBRANCH   1  15
BRANCH   1  27
ATOM     27  C9  UNL     1     157.816 157.781 164.791  0.00  0.00    +0.000 C 
BRANCH  27  28
ATOM     28  C10 UNL     1     156.863 158.858 164.859  0.00  0.00    +0.000 A 
ATOM     29  C11 UNL     1     156.810 159.988 164.094  0.00  0.00    +0.000 A 
ATOM     30  C12 UNL     1     155.848 160.985 164.236  0.00  0.00    +0.000 A 
ATOM     31  C13 UNL     1     154.888 160.854 165.188  0.00  0.00    +0.000 A 
ATOM     32  C14 UNL     1     154.907 159.721 165.987  0.00  0.00    +0.000 A 
ATOM     33  C15 UNL     1     153.913 159.603 166.965  0.00  0.00    +0.000 A 
ATOM     34  C16 UNL     1     153.880 158.505 167.791  0.00  0.00    +0.000 A 
ATOM     35  C17 UNL     1     154.828 157.514 167.658  0.00  0.00    +0.000 A 
ATOM     36  C18 UNL     1     155.794 157.658 166.685  0.00  0.00    +0.000 A 
ATOM     37  C19 UNL     1     155.865 158.741 165.836  0.00  0.00    +0.000 A 
ENDBRANCH  27  28
ENDBRANCH   1  27
TORSDOF 8
ENDMDL
MODEL 8
REMARK VINA RESULT:      -7.1      7.171     11.500
REMARK  Name = ./3D_structures\o6_MMV1782109_3D.pdb
REMARK  8 active torsions:
REMARK  status: ('A' for Active; 'I' for Inactive)
REMARK    1  A    between atoms: C1_2  and  C20_26
REMARK    2  A    between atoms: N1_3  and  C2_4
REMARK    3  A    between atoms: C2_4  and  C3_5
REMARK    4  A    between atoms: C2_4  and  C9_15
REMARK    5  A    between atoms: N2_7  and  C4_8
REMARK    6  A    between atoms: C4_8  and  C5_9
REMARK    7  A    between atoms: C5_9  and  C6_10
REMARK    8  A    between atoms: C9_15  and  C10_16
REMARK                            x       y       z     vdW  Elec       q    Type
REMARK                         _______ _______ _______ _____ _____    ______ ____
ROOT
ATOM      1  C2  UNL     1     149.922 164.898 166.148  0.00  0.00    +0.000 C 
ENDROOT
BRANCH   1   4
ATOM      2  O1  UNL     1     149.865 162.175 166.592  0.00  0.00    +0.000 OA
ATOM      3  C1  UNL     1     150.462 162.840 167.463  0.00  0.00    +0.000 C 
ATOM      4  N1  UNL     1     150.519 164.260 167.283  0.00  0.00    +0.000 N 
ATOM      5  H1  UNL     1     151.015 164.772 168.015  0.00  0.00    +0.000 HD
BRANCH   3   6
ATOM      6  C20 UNL     1     151.066 162.135 168.613  0.00  0.00    +0.000 C 
ATOM      7  C21 UNL     1     152.286 161.370 168.276  0.00  0.00    +0.000 C 
ATOM      8  C22 UNL     1     152.095 160.039 168.904  0.00  0.00    +0.000 A 
ATOM      9  C23 UNL     1     150.832 159.940 169.432  0.00  0.00    +0.000 A 
ATOM     10  C24 UNL     1     150.096 161.178 169.196  0.00  0.00    +0.000 C 
ATOM     11  C25 UNL     1     150.390 158.791 170.082  0.00  0.00    +0.000 A 
ATOM     12  C26 UNL     1     151.214 157.703 170.217  0.00  0.00    +0.000 A 
ATOM     13  C27 UNL     1     152.486 157.782 169.694  0.00  0.00    +0.000 A 
ATOM     14  C28 UNL     1     152.923 158.921 169.052  0.00  0.00    +0.000 A 
ENDBRANCH   3   6
ENDBRANCH   1   4
BRANCH   1  15
ATOM     15  C3  UNL     1     148.677 165.656 166.561  0.00  0.00    +0.000 C 
ATOM     16  O2  UNL     1     148.644 166.344 167.611  0.00  0.00    +0.000 OA
ATOM     17  N2  UNL     1     147.495 165.615 165.771  0.00  0.00    +0.000 N 
ATOM     18  H3  UNL     1     147.542 165.025 164.881  0.00  0.00    +0.000 HD
BRANCH  17  19
ATOM     19  C4  UNL     1     146.275 166.304 166.089  0.00  0.00    +0.000 C 
BRANCH  19  20
ATOM     20  C5  UNL     1     145.108 165.372 166.321  0.00  0.00    +0.000 C 
BRANCH  20  21
ATOM     21  C6  UNL     1     145.545 164.130 167.010  0.00  0.00    +0.000 A 
ATOM     22  C7  UNL     1     145.398 163.883 168.356  0.00  0.00    +0.000 A 
ATOM     23  N3  UNL     1     145.907 162.654 168.624  0.00  0.00    +0.000 N 
ATOM     24  C8  UNL     1     146.366 162.132 167.475  0.00  0.00    +0.000 A 
ATOM     25  N4  UNL     1     146.141 163.036 166.503  0.00  0.00    +0.000 NA
ATOM     26  H9  UNL     1     145.947 162.174 169.553  0.00  0.00    +0.000 HD
ENDBRANCH  20  21
ENDBRANCH  19  20
ENDBRANCH  17  19
ENDBRANCH   1  15
BRANCH   1  27
ATOM     27  C9  UNL     1     150.796 165.685 165.276  0.00  0.00    +0.000 C 
BRANCH  27  28
ATOM     28  C10 UNL     1     151.950 165.089 164.656  0.00  0.00    +0.000 A 
ATOM     29  C11 UNL     1     152.061 163.849 164.093  0.00  0.00    +0.000 A 
ATOM     30  C12 UNL     1     153.228 163.352 163.517  0.00  0.00    +0.000 A 
ATOM     31  C13 UNL     1     154.344 164.125 163.500  0.00  0.00    +0.000 A 
ATOM     32  C14 UNL     1     154.274 165.392 164.061  0.00  0.00    +0.000 A 
ATOM     33  C15 UNL     1     155.434 166.175 164.038  0.00  0.00    +0.000 A 
ATOM     34  C16 UNL     1     155.430 167.436 164.581  0.00  0.00    +0.000 A 
ATOM     35  C17 UNL     1     154.280 167.937 165.153  0.00  0.00    +0.000 A 
ATOM     36  C18 UNL     1     153.153 167.142 165.161  0.00  0.00    +0.000 A 
ATOM     37  C19 UNL     1     153.113 165.872 164.628  0.00  0.00    +0.000 A 
ENDBRANCH  27  28
ENDBRANCH   1  27
TORSDOF 8
ENDMDL
MODEL 9
REMARK VINA RESULT:      -7.1      4.181      8.809
REMARK  Name = ./3D_structures\o6_MMV1782109_3D.pdb
REMARK  8 active torsions:
REMARK  status: ('A' for Active; 'I' for Inactive)
REMARK    1  A    between atoms: C1_2  and  C20_26
REMARK    2  A    between atoms: N1_3  and  C2_4
REMARK    3  A    between atoms: C2_4  and  C3_5
REMARK    4  A    between atoms: C2_4  and  C9_15
REMARK    5  A    between atoms: N2_7  and  C4_8
REMARK    6  A    between atoms: C4_8  and  C5_9
REMARK    7  A    between atoms: C5_9  and  C6_10
REMARK    8  A    between atoms: C9_15  and  C10_16
REMARK                            x       y       z     vdW  Elec       q    Type
REMARK                         _______ _______ _______ _____ _____    ______ ____
ROOT
ATOM      1  C2  UNL     1     153.636 158.753 170.183  0.00  0.00    +0.000 C 
ENDROOT
BRANCH   1   4
ATOM      2  O1  UNL     1     155.796 157.107 170.667  0.00  0.00    +0.000 OA
ATOM      3  C1  UNL     1     156.074 158.316 170.528  0.00  0.00    +0.000 C 
ATOM      4  N1  UNL     1     154.987 159.216 170.277  0.00  0.00    +0.000 N 
ATOM      5  H1  UNL     1     155.251 160.197 170.169  0.00  0.00    +0.000 HD
BRANCH   3   6
ATOM      6  C20 UNL     1     157.485 158.743 170.630  0.00  0.00    +0.000 C 
ATOM      7  C21 UNL     1     157.679 160.206 170.522  0.00  0.00    +0.000 C 
ATOM      8  C22 UNL     1     158.792 160.378 169.555  0.00  0.00    +0.000 A 
ATOM      9  C23 UNL     1     159.138 159.167 169.009  0.00  0.00    +0.000 A 
ATOM     10  C24 UNL     1     158.291 158.114 169.558  0.00  0.00    +0.000 C 
ATOM     11  C25 UNL     1     160.157 159.044 168.068  0.00  0.00    +0.000 A 
ATOM     12  C26 UNL     1     160.861 160.145 167.651  0.00  0.00    +0.000 A 
ATOM     13  C27 UNL     1     160.530 161.370 168.188  0.00  0.00    +0.000 A 
ATOM     14  C28 UNL     1     159.520 161.490 169.120  0.00  0.00    +0.000 A 
ENDBRANCH   3   6
ENDBRANCH   1   4
BRANCH   1  15
ATOM     15  C3  UNL     1     152.711 159.652 170.979  0.00  0.00    +0.000 C 
ATOM     16  O2  UNL     1     151.543 159.904 170.590  0.00  0.00    +0.000 OA
ATOM     17  N2  UNL     1     153.134 160.246 172.200  0.00  0.00    +0.000 N 
ATOM     18  H3  UNL     1     154.130 160.021 172.515  0.00  0.00    +0.000 HD
BRANCH  17  19
ATOM     19  C4  UNL     1     152.322 161.107 173.014  0.00  0.00    +0.000 C 
BRANCH  19  20
ATOM     20  C5  UNL     1     152.939 162.469 173.240  0.00  0.00    +0.000 C 
BRANCH  20  21
ATOM     21  C6  UNL     1     154.418 162.372 173.355  0.00  0.00    +0.000 A 
ATOM     22  C7  UNL     1     155.307 163.306 172.876  0.00  0.00    +0.000 A 
ATOM     23  N3  UNL     1     156.565 162.887 173.163  0.00  0.00    +0.000 N 
ATOM     24  C8  UNL     1     156.477 161.715 173.812  0.00  0.00    +0.000 A 
ATOM     25  N4  UNL     1     155.169 161.412 173.922  0.00  0.00    +0.000 NA
ATOM     26  H9  UNL     1     157.463 163.374 172.933  0.00  0.00    +0.000 HD
ENDBRANCH  20  21
ENDBRANCH  19  20
ENDBRANCH  17  19
ENDBRANCH   1  15
BRANCH   1  27
ATOM     27  C9  UNL     1     153.115 158.452 168.848  0.00  0.00    +0.000 C 
BRANCH  27  28
ATOM     28  C10 UNL     1     153.496 159.248 167.710  0.00  0.00    +0.000 A 
ATOM     29  C11 UNL     1     152.941 160.417 167.273  0.00  0.00    +0.000 A 
ATOM     30  C12 UNL     1     153.375 161.120 166.152  0.00  0.00    +0.000 A 
ATOM     31  C13 UNL     1     154.415 160.636 165.425  0.00  0.00    +0.000 A 
ATOM     32  C14 UNL     1     155.008 159.451 165.835  0.00  0.00    +0.000 A 
ATOM     33  C15 UNL     1     156.076 158.965 165.073  0.00  0.00    +0.000 A 
ATOM     34  C16 UNL     1     156.702 157.793 165.425  0.00  0.00    +0.000 A 
ATOM     35  C17 UNL     1     156.280 157.091 166.533  0.00  0.00    +0.000 A 
ATOM     36  C18 UNL     1     155.225 157.596 167.264  0.00  0.00    +0.000 A 
ATOM     37  C19 UNL     1     154.569 158.765 166.947  0.00  0.00    +0.000 A 
ENDBRANCH  27  28
ENDBRANCH   1  27
TORSDOF 8
ENDMDL
