MODEL 1
REMARK VINA RESULT:      -5.9      0.000      0.000
REMARK  Name = ./3D_structures\o70_MMV000043_3D.pdb
REMARK  15 active torsions:
REMARK  status: ('A' for Active; 'I' for Inactive)
REMARK    1  A    between atoms: C1_1  and  O1_2
REMARK    2  A    between atoms: O1_2  and  C2_3
REMARK    3  A    between atoms: C4_5  and  C5_6
REMARK    4  A    between atoms: C7_8  and  O2_9
REMARK    5  A    between atoms: O2_9  and  C8_10
REMARK    6  A    between atoms: C12_14  and  C14_16
REMARK    7  A    between atoms: C15_20  and  O3_21
REMARK    8  A    between atoms: O3_21  and  C16_22
REMARK    9  A    between atoms: C18_24  and  N1_25
REMARK   10  A    between atoms: N1_25  and  C19_26
REMARK   11  A    between atoms: C19_26  and  C20_27
REMARK   12  A    between atoms: C19_26  and  C21_28
REMARK   13  A    between atoms: C21_28  and  C22_29
REMARK   14  A    between atoms: C22_29  and  C23_30
REMARK   15  A    between atoms: C23_30  and  N2_31
REMARK                            x       y       z     vdW  Elec       q    Type
REMARK                         _______ _______ _______ _____ _____    ______ ____
ROOT
ATOM      1  C2  UNL     1     147.688 158.378 168.853  0.00  0.00    +0.000 C 
ATOM      2  C3  UNL     1     148.540 157.626 169.624  0.00  0.00    +0.000 C 
ATOM      3  C4  UNL     1     149.833 158.072 169.911  0.00  0.00    +0.000 C 
ATOM      4  C5  UNL     1     150.748 157.268 170.710  0.00  0.00    +0.000 C 
ATOM      5  C6  UNL     1     150.273 159.297 169.411  0.00  0.00    +0.000 A 
ATOM      6  C7  UNL     1     151.511 159.796 169.685  0.00  0.00    +0.000 A 
ATOM      7  C15 UNL     1     151.876 161.044 169.174  0.00  0.00    +0.000 A 
ATOM      8  C17 UNL     1     150.961 161.753 168.397  0.00  0.00    +0.000 A 
ATOM      9  C18 UNL     1     149.709 161.291 168.098  0.00  0.00    +0.000 A 
ATOM     10  C24 UNL     1     149.375 160.025 168.628  0.00  0.00    +0.000 A 
ATOM     11  N3  UNL     1     148.142 159.544 168.386  0.00  0.00    +0.000 NA
ENDROOT
BRANCH   1  13
ATOM     12  C1  UNL     1     146.045 157.578 167.311  0.00  0.00    +0.000 C 
ATOM     13  O1  UNL     1     146.393 157.892 168.644  0.00  0.00    +0.000 OA
ENDBRANCH   1  13
BRANCH   7  14
ATOM     14  O3  UNL     1     153.108 161.580 169.415  0.00  0.00    +0.000 OA
ATOM     15  C16 UNL     1     153.500 162.548 170.299  0.00  0.00    +0.000 C 
ENDBRANCH   7  14
BRANCH   9  16
ATOM     16  N1  UNL     1     148.785 162.008 167.312  0.00  0.00    +0.000 N 
ATOM     17  H16 UNL     1     148.893 161.746 166.241  0.00  0.00    +0.000 HD
BRANCH  16  18
ATOM     18  C19 UNL     1     147.814 162.962 167.543  0.00  0.00    +0.000 C 
ATOM     19  C20 UNL     1     148.321 164.382 167.067  0.00  0.00    +0.000 C 
BRANCH  18  20
ATOM     20  C21 UNL     1     147.350 163.237 168.920  0.00  0.00    +0.000 C 
BRANCH  20  21
ATOM     21  C22 UNL     1     145.965 163.017 169.345  0.00  0.00    +0.000 C 
BRANCH  21  22
ATOM     22  C23 UNL     1     145.349 161.921 168.456  0.00  0.00    +0.000 C 
BRANCH  22  23
ATOM     23  N2  UNL     1     145.197 160.753 169.328  0.00  0.00    +0.000 NA
ATOM     24  H27 UNL     1     144.518 161.053 170.089  0.00  0.00    +0.000 HD
ATOM     25  H28 UNL     1     146.123 160.620 169.802  0.00  0.00    +0.000 HD
ENDBRANCH  22  23
ENDBRANCH  21  22
ENDBRANCH  20  21
ENDBRANCH  18  20
ENDBRANCH  16  18
ENDBRANCH   9  16
BRANCH   6  26
ATOM     26  O2  UNL     1     152.437 159.128 170.463  0.00  0.00    +0.000 OA
BRANCH  26  27
ATOM     27  C8  UNL     1     153.652 158.633 169.955  0.00  0.00    +0.000 A 
ATOM     28  C9  UNL     1     153.748 157.856 168.830  0.00  0.00    +0.000 A 
ATOM     29  C10 UNL     1     154.976 157.387 168.358  0.00  0.00    +0.000 A 
ATOM     30  C11 UNL     1     156.128 157.711 169.040  0.00  0.00    +0.000 A 
ATOM     31  C12 UNL     1     156.070 158.492 170.172  0.00  0.00    +0.000 A 
ATOM     32  C13 UNL     1     154.838 158.924 170.590  0.00  0.00    +0.000 A 
BRANCH  31  33
ATOM     33  C14 UNL     1     157.325 158.859 170.940  0.00  0.00    +0.000 C 
ATOM     34  F1  UNL     1     157.652 160.175 170.728  0.00  0.00    +0.000 F 
ATOM     35  F2  UNL     1     158.351 158.048 170.511  0.00  0.00    +0.000 F 
ATOM     36  F3  UNL     1     157.060 158.604 172.245  0.00  0.00    +0.000 F 
ENDBRANCH  31  33
ENDBRANCH  26  27
ENDBRANCH   6  26
TORSDOF 11
ENDMDL
MODEL 2
REMARK VINA RESULT:      -5.8      3.495      5.845
REMARK  Name = ./3D_structures\o70_MMV000043_3D.pdb
REMARK  15 active torsions:
REMARK  status: ('A' for Active; 'I' for Inactive)
REMARK    1  A    between atoms: C1_1  and  O1_2
REMARK    2  A    between atoms: O1_2  and  C2_3
REMARK    3  A    between atoms: C4_5  and  C5_6
REMARK    4  A    between atoms: C7_8  and  O2_9
REMARK    5  A    between atoms: O2_9  and  C8_10
REMARK    6  A    between atoms: C12_14  and  C14_16
REMARK    7  A    between atoms: C15_20  and  O3_21
REMARK    8  A    between atoms: O3_21  and  C16_22
REMARK    9  A    between atoms: C18_24  and  N1_25
REMARK   10  A    between atoms: N1_25  and  C19_26
REMARK   11  A    between atoms: C19_26  and  C20_27
REMARK   12  A    between atoms: C19_26  and  C21_28
REMARK   13  A    between atoms: C21_28  and  C22_29
REMARK   14  A    between atoms: C22_29  and  C23_30
REMARK   15  A    between atoms: C23_30  and  N2_31
REMARK                            x       y       z     vdW  Elec       q    Type
REMARK                         _______ _______ _______ _____ _____    ______ ____
ROOT
ATOM      1  C2  UNL     1     147.415 166.065 166.229  0.00  0.00    +0.000 C 
ATOM      2  C3  UNL     1     148.781 166.063 166.369  0.00  0.00    +0.000 C 
ATOM      3  C4  UNL     1     149.447 164.959 166.907  0.00  0.00    +0.000 C 
ATOM      4  C5  UNL     1     150.893 164.961 167.078  0.00  0.00    +0.000 C 
ATOM      5  C6  UNL     1     148.722 163.840 167.313  0.00  0.00    +0.000 A 
ATOM      6  C7  UNL     1     149.321 162.724 167.815  0.00  0.00    +0.000 A 
ATOM      7  C15 UNL     1     148.536 161.626 168.175  0.00  0.00    +0.000 A 
ATOM      8  C17 UNL     1     147.154 161.697 168.008  0.00  0.00    +0.000 A 
ATOM      9  C18 UNL     1     146.510 162.795 167.508  0.00  0.00    +0.000 A 
ATOM     10  C24 UNL     1     147.335 163.887 167.157  0.00  0.00    +0.000 A 
ATOM     11  N3  UNL     1     146.750 164.979 166.631  0.00  0.00    +0.000 NA
ENDROOT
BRANCH   1  13
ATOM     12  C1  UNL     1     145.409 167.263 165.717  0.00  0.00    +0.000 C 
ATOM     13  O1  UNL     1     146.818 167.185 165.640  0.00  0.00    +0.000 OA
ENDBRANCH   1  13
BRANCH   7  14
ATOM     14  O3  UNL     1     149.091 160.490 168.691  0.00  0.00    +0.000 OA
ATOM     15  C16 UNL     1     148.664 159.191 168.644  0.00  0.00    +0.000 C 
ENDBRANCH   7  14
BRANCH   9  16
ATOM     16  N1  UNL     1     145.114 162.867 167.339  0.00  0.00    +0.000 N 
ATOM     17  H16 UNL     1     144.659 163.532 168.100  0.00  0.00    +0.000 HD
BRANCH  16  18
ATOM     18  C19 UNL     1     144.185 162.298 166.490  0.00  0.00    +0.000 C 
ATOM     19  C20 UNL     1     143.693 160.912 167.072  0.00  0.00    +0.000 C 
BRANCH  18  20
ATOM     20  C21 UNL     1     144.558 161.944 165.104  0.00  0.00    +0.000 C 
BRANCH  20  21
ATOM     21  C22 UNL     1     144.184 162.767 163.951  0.00  0.00    +0.000 C 
BRANCH  21  22
ATOM     22  C23 UNL     1     144.270 161.898 162.682  0.00  0.00    +0.000 C 
BRANCH  22  23
ATOM     23  N2  UNL     1     145.147 160.779 163.037  0.00  0.00    +0.000 NA
ATOM     24  H27 UNL     1     145.391 160.923 164.062  0.00  0.00    +0.000 HD
ATOM     25  H28 UNL     1     146.037 160.925 162.503  0.00  0.00    +0.000 HD
ENDBRANCH  22  23
ENDBRANCH  21  22
ENDBRANCH  20  21
ENDBRANCH  18  20
ENDBRANCH  16  18
ENDBRANCH   9  16
BRANCH   6  26
ATOM     26  O2  UNL     1     150.689 162.613 167.981  0.00  0.00    +0.000 OA
BRANCH  26  27
ATOM     27  C8  UNL     1     151.496 161.793 167.172  0.00  0.00    +0.000 A 
ATOM     28  C9  UNL     1     151.500 161.840 165.803  0.00  0.00    +0.000 A 
ATOM     29  C10 UNL     1     152.319 161.008 165.036  0.00  0.00    +0.000 A 
ATOM     30  C11 UNL     1     153.150 160.111 165.670  0.00  0.00    +0.000 A 
ATOM     31  C12 UNL     1     153.175 160.038 167.045  0.00  0.00    +0.000 A 
ATOM     32  C13 UNL     1     152.349 160.878 167.747  0.00  0.00    +0.000 A 
BRANCH  31  33
ATOM     33  C14 UNL     1     154.080 159.057 167.765  0.00  0.00    +0.000 C 
ATOM     34  F1  UNL     1     154.224 157.906 167.030  0.00  0.00    +0.000 F 
ATOM     35  F2  UNL     1     153.521 158.764 168.988  0.00  0.00    +0.000 F 
ATOM     36  F3  UNL     1     155.263 159.695 167.947  0.00  0.00    +0.000 F 
ENDBRANCH  31  33
ENDBRANCH  26  27
ENDBRANCH   6  26
TORSDOF 11
ENDMDL
MODEL 3
REMARK VINA RESULT:      -5.6      2.757      4.134
REMARK  Name = ./3D_structures\o70_MMV000043_3D.pdb
REMARK  15 active torsions:
REMARK  status: ('A' for Active; 'I' for Inactive)
REMARK    1  A    between atoms: C1_1  and  O1_2
REMARK    2  A    between atoms: O1_2  and  C2_3
REMARK    3  A    between atoms: C4_5  and  C5_6
REMARK    4  A    between atoms: C7_8  and  O2_9
REMARK    5  A    between atoms: O2_9  and  C8_10
REMARK    6  A    between atoms: C12_14  and  C14_16
REMARK    7  A    between atoms: C15_20  and  O3_21
REMARK    8  A    between atoms: O3_21  and  C16_22
REMARK    9  A    between atoms: C18_24  and  N1_25
REMARK   10  A    between atoms: N1_25  and  C19_26
REMARK   11  A    between atoms: C19_26  and  C20_27
REMARK   12  A    between atoms: C19_26  and  C21_28
REMARK   13  A    between atoms: C21_28  and  C22_29
REMARK   14  A    between atoms: C22_29  and  C23_30
REMARK   15  A    between atoms: C23_30  and  N2_31
REMARK                            x       y       z     vdW  Elec       q    Type
REMARK                         _______ _______ _______ _____ _____    ______ ____
ROOT
ATOM      1  C2  UNL     1     150.060 161.431 168.807  0.00  0.00    +0.000 C 
ATOM      2  C3  UNL     1     150.457 160.253 169.390  0.00  0.00    +0.000 C 
ATOM      3  C4  UNL     1     151.707 159.698 169.106  0.00  0.00    +0.000 C 
ATOM      4  C5  UNL     1     152.125 158.437 169.704  0.00  0.00    +0.000 C 
ATOM      5  C6  UNL     1     152.569 160.340 168.218  0.00  0.00    +0.000 A 
ATOM      6  C7  UNL     1     153.811 159.861 167.928  0.00  0.00    +0.000 A 
ATOM      7  C15 UNL     1     154.634 160.571 167.051  0.00  0.00    +0.000 A 
ATOM      8  C17 UNL     1     154.165 161.760 166.494  0.00  0.00    +0.000 A 
ATOM      9  C18 UNL     1     152.927 162.279 166.757  0.00  0.00    +0.000 A 
ATOM     10  C24 UNL     1     152.121 161.532 167.645  0.00  0.00    +0.000 A 
ATOM     11  N3  UNL     1     150.906 162.019 167.958  0.00  0.00    +0.000 NA
ENDROOT
BRANCH   1  13
ATOM     12  C1  UNL     1     148.755 163.349 169.392  0.00  0.00    +0.000 C 
ATOM     13  O1  UNL     1     148.814 161.955 169.172  0.00  0.00    +0.000 OA
ENDBRANCH   1  13
BRANCH   7  14
ATOM     14  O3  UNL     1     155.882 160.125 166.725  0.00  0.00    +0.000 OA
ATOM     15  C16 UNL     1     156.331 159.473 165.609  0.00  0.00    +0.000 C 
ENDBRANCH   7  14
BRANCH   9  16
ATOM     16  N1  UNL     1     152.452 163.479 166.193  0.00  0.00    +0.000 N 
ATOM     17  H16 UNL     1     152.609 164.328 166.886  0.00  0.00    +0.000 HD
BRANCH  16  18
ATOM     18  C19 UNL     1     151.823 163.845 165.019  0.00  0.00    +0.000 C 
ATOM     19  C20 UNL     1     152.881 163.965 163.849  0.00  0.00    +0.000 C 
BRANCH  18  20
ATOM     20  C21 UNL     1     151.103 165.134 164.928  0.00  0.00    +0.000 C 
BRANCH  20  21
ATOM     21  C22 UNL     1     150.547 165.812 166.101  0.00  0.00    +0.000 C 
BRANCH  21  22
ATOM     22  C23 UNL     1     149.075 165.388 166.258  0.00  0.00    +0.000 C 
BRANCH  22  23
ATOM     23  N2  UNL     1     148.314 166.639 166.308  0.00  0.00    +0.000 NA
ATOM     24  H27 UNL     1     148.662 167.217 165.486  0.00  0.00    +0.000 HD
ATOM     25  H28 UNL     1     148.633 167.141 167.172  0.00  0.00    +0.000 HD
ENDBRANCH  22  23
ENDBRANCH  21  22
ENDBRANCH  20  21
ENDBRANCH  18  20
ENDBRANCH  16  18
ENDBRANCH   9  16
BRANCH   6  26
ATOM     26  O2  UNL     1     154.314 158.694 168.473  0.00  0.00    +0.000 OA
BRANCH  26  27
ATOM     27  C8  UNL     1     155.356 158.675 169.418  0.00  0.00    +0.000 A 
ATOM     28  C9  UNL     1     156.552 158.036 169.221  0.00  0.00    +0.000 A 
ATOM     29  C10 UNL     1     157.562 158.044 170.186  0.00  0.00    +0.000 A 
ATOM     30  C11 UNL     1     157.355 158.712 171.373  0.00  0.00    +0.000 A 
ATOM     31  C12 UNL     1     156.167 159.369 171.603  0.00  0.00    +0.000 A 
ATOM     32  C13 UNL     1     155.211 159.327 170.621  0.00  0.00    +0.000 A 
BRANCH  31  33
ATOM     33  C14 UNL     1     155.917 160.109 172.903  0.00  0.00    +0.000 C 
ATOM     34  F1  UNL     1     155.641 159.225 173.916  0.00  0.00    +0.000 F 
ATOM     35  F2  UNL     1     154.850 160.959 172.721  0.00  0.00    +0.000 F 
ATOM     36  F3  UNL     1     157.037 160.832 173.149  0.00  0.00    +0.000 F 
ENDBRANCH  31  33
ENDBRANCH  26  27
ENDBRANCH   6  26
TORSDOF 11
ENDMDL
MODEL 4
REMARK VINA RESULT:      -5.6      6.009      9.230
REMARK  Name = ./3D_structures\o70_MMV000043_3D.pdb
REMARK  15 active torsions:
REMARK  status: ('A' for Active; 'I' for Inactive)
REMARK    1  A    between atoms: C1_1  and  O1_2
REMARK    2  A    between atoms: O1_2  and  C2_3
REMARK    3  A    between atoms: C4_5  and  C5_6
REMARK    4  A    between atoms: C7_8  and  O2_9
REMARK    5  A    between atoms: O2_9  and  C8_10
REMARK    6  A    between atoms: C12_14  and  C14_16
REMARK    7  A    between atoms: C15_20  and  O3_21
REMARK    8  A    between atoms: O3_21  and  C16_22
REMARK    9  A    between atoms: C18_24  and  N1_25
REMARK   10  A    between atoms: N1_25  and  C19_26
REMARK   11  A    between atoms: C19_26  and  C20_27
REMARK   12  A    between atoms: C19_26  and  C21_28
REMARK   13  A    between atoms: C21_28  and  C22_29
REMARK   14  A    between atoms: C22_29  and  C23_30
REMARK   15  A    between atoms: C23_30  and  N2_31
REMARK                            x       y       z     vdW  Elec       q    Type
REMARK                         _______ _______ _______ _____ _____    ______ ____
ROOT
ATOM      1  C2  UNL     1     146.307 166.080 166.045  0.00  0.00    +0.000 C 
ATOM      2  C3  UNL     1     145.040 165.552 166.079  0.00  0.00    +0.000 C 
ATOM      3  C4  UNL     1     144.816 164.253 166.544  0.00  0.00    +0.000 C 
ATOM      4  C5  UNL     1     143.477 163.680 166.563  0.00  0.00    +0.000 C 
ATOM      5  C6  UNL     1     145.887 163.475 166.979  0.00  0.00    +0.000 A 
ATOM      6  C7  UNL     1     145.724 162.215 167.471  0.00  0.00    +0.000 A 
ATOM      7  C15 UNL     1     146.840 161.502 167.917  0.00  0.00    +0.000 A 
ATOM      8  C17 UNL     1     148.097 162.100 167.850  0.00  0.00    +0.000 A 
ATOM      9  C18 UNL     1     148.308 163.361 167.365  0.00  0.00    +0.000 A 
ATOM     10  C24 UNL     1     147.158 164.051 166.921  0.00  0.00    +0.000 A 
ATOM     11  N3  UNL     1     147.312 165.308 166.464  0.00  0.00    +0.000 NA
ENDROOT
BRANCH   1  13
ATOM     12  C1  UNL     1     145.313 168.231 165.718  0.00  0.00    +0.000 C 
ATOM     13  O1  UNL     1     146.453 167.403 165.611  0.00  0.00    +0.000 OA
ENDBRANCH   1  13
BRANCH   7  14
ATOM     14  O3  UNL     1     146.726 160.234 168.409  0.00  0.00    +0.000 OA
ATOM     15  C16 UNL     1     147.364 159.079 168.048  0.00  0.00    +0.000 C 
ENDBRANCH   7  14
BRANCH   9  16
ATOM     16  N1  UNL     1     149.579 163.965 167.297  0.00  0.00    +0.000 N 
ATOM     17  H16 UNL     1     150.055 163.773 166.316  0.00  0.00    +0.000 HD
BRANCH  16  18
ATOM     18  C19 UNL     1     150.376 164.701 168.153  0.00  0.00    +0.000 C 
ATOM     19  C20 UNL     1     151.366 163.745 168.933  0.00  0.00    +0.000 C 
BRANCH  18  20
ATOM     20  C21 UNL     1     149.769 165.488 169.248  0.00  0.00    +0.000 C 
BRANCH  20  21
ATOM     21  C22 UNL     1     148.927 164.883 170.282  0.00  0.00    +0.000 C 
BRANCH  21  22
ATOM     22  C23 UNL     1     147.545 165.562 170.247  0.00  0.00    +0.000 C 
BRANCH  22  23
ATOM     23  N2  UNL     1     146.583 164.501 170.562  0.00  0.00    +0.000 NA
ATOM     24  H27 UNL     1     145.797 164.980 171.095  0.00  0.00    +0.000 HD
ATOM     25  H28 UNL     1     147.059 163.871 171.252  0.00  0.00    +0.000 HD
ENDBRANCH  22  23
ENDBRANCH  21  22
ENDBRANCH  20  21
ENDBRANCH  18  20
ENDBRANCH  16  18
ENDBRANCH   9  16
BRANCH   6  26
ATOM     26  O2  UNL     1     144.492 161.597 167.565  0.00  0.00    +0.000 OA
BRANCH  26  27
ATOM     27  C8  UNL     1     144.085 160.561 166.704  0.00  0.00    +0.000 A 
ATOM     28  C9  UNL     1     143.217 159.565 167.067  0.00  0.00    +0.000 A 
ATOM     29  C10 UNL     1     142.838 158.555 166.179  0.00  0.00    +0.000 A 
ATOM     30  C11 UNL     1     143.348 158.556 164.900  0.00  0.00    +0.000 A 
ATOM     31  C12 UNL     1     144.220 159.543 164.499  0.00  0.00    +0.000 A 
ATOM     32  C13 UNL     1     144.558 160.509 165.412  0.00  0.00    +0.000 A 
BRANCH  31  33
ATOM     33  C14 UNL     1     144.796 159.563 163.097  0.00  0.00    +0.000 C 
ATOM     34  F1  UNL     1     143.911 159.010 162.205  0.00  0.00    +0.000 F 
ATOM     35  F2  UNL     1     145.970 158.845 163.098  0.00  0.00    +0.000 F 
ATOM     36  F3  UNL     1     145.059 160.863 162.813  0.00  0.00    +0.000 F 
ENDBRANCH  31  33
ENDBRANCH  26  27
ENDBRANCH   6  26
TORSDOF 11
ENDMDL
MODEL 5
REMARK VINA RESULT:      -5.5      2.343      4.438
REMARK  Name = ./3D_structures\o70_MMV000043_3D.pdb
REMARK  15 active torsions:
REMARK  status: ('A' for Active; 'I' for Inactive)
REMARK    1  A    between atoms: C1_1  and  O1_2
REMARK    2  A    between atoms: O1_2  and  C2_3
REMARK    3  A    between atoms: C4_5  and  C5_6
REMARK    4  A    between atoms: C7_8  and  O2_9
REMARK    5  A    between atoms: O2_9  and  C8_10
REMARK    6  A    between atoms: C12_14  and  C14_16
REMARK    7  A    between atoms: C15_20  and  O3_21
REMARK    8  A    between atoms: O3_21  and  C16_22
REMARK    9  A    between atoms: C18_24  and  N1_25
REMARK   10  A    between atoms: N1_25  and  C19_26
REMARK   11  A    between atoms: C19_26  and  C20_27
REMARK   12  A    between atoms: C19_26  and  C21_28
REMARK   13  A    between atoms: C21_28  and  C22_29
REMARK   14  A    between atoms: C22_29  and  C23_30
REMARK   15  A    between atoms: C23_30  and  N2_31
REMARK                            x       y       z     vdW  Elec       q    Type
REMARK                         _______ _______ _______ _____ _____    ______ ____
ROOT
ATOM      1  C2  UNL     1     151.060 164.714 166.504  0.00  0.00    +0.000 C 
ATOM      2  C3  UNL     1     152.351 164.403 166.851  0.00  0.00    +0.000 C 
ATOM      3  C4  UNL     1     152.647 163.219 167.530  0.00  0.00    +0.000 C 
ATOM      4  C5  UNL     1     154.013 162.893 167.920  0.00  0.00    +0.000 C 
ATOM      5  C6  UNL     1     151.622 162.336 167.868  0.00  0.00    +0.000 A 
ATOM      6  C7  UNL     1     151.856 161.153 168.503  0.00  0.00    +0.000 A 
ATOM      7  C15 UNL     1     150.784 160.302 168.785  0.00  0.00    +0.000 A 
ATOM      8  C17 UNL     1     149.498 160.683 168.406  0.00  0.00    +0.000 A 
ATOM      9  C18 UNL     1     149.217 161.859 167.767  0.00  0.00    +0.000 A 
ATOM     10  C24 UNL     1     150.324 162.696 167.501  0.00  0.00    +0.000 A 
ATOM     11  N3  UNL     1     150.101 163.850 166.846  0.00  0.00    +0.000 NA
ENDROOT
BRANCH   1  13
ATOM     12  C1  UNL     1     151.692 166.125 164.679  0.00  0.00    +0.000 C 
ATOM     13  O1  UNL     1     150.842 165.894 165.784  0.00  0.00    +0.000 OA
ENDBRANCH   1  13
BRANCH   7  14
ATOM     14  O3  UNL     1     150.969 159.111 169.426  0.00  0.00    +0.000 OA
ATOM     15  C16 UNL     1     150.924 158.802 170.758  0.00  0.00    +0.000 C 
ENDBRANCH   7  14
BRANCH   9  16
ATOM     16  N1  UNL     1     147.917 162.245 167.385  0.00  0.00    +0.000 N 
ATOM     17  H16 UNL     1     147.733 162.006 166.319  0.00  0.00    +0.000 HD
BRANCH  16  18
ATOM     18  C19 UNL     1     146.844 162.863 167.997  0.00  0.00    +0.000 C 
ATOM     19  C20 UNL     1     146.484 164.204 167.238  0.00  0.00    +0.000 C 
BRANCH  18  20
ATOM     20  C21 UNL     1     146.943 163.312 169.402  0.00  0.00    +0.000 C 
BRANCH  20  21
ATOM     21  C22 UNL     1     147.231 164.700 169.769  0.00  0.00    +0.000 C 
BRANCH  21  22
ATOM     22  C23 UNL     1     148.705 164.794 170.208  0.00  0.00    +0.000 C 
BRANCH  22  23
ATOM     23  N2  UNL     1     149.328 165.740 169.277  0.00  0.00    +0.000 NA
ATOM     24  H27 UNL     1     150.181 165.237 168.890  0.00  0.00    +0.000 HD
ATOM     25  H28 UNL     1     149.696 166.527 169.863  0.00  0.00    +0.000 HD
ENDBRANCH  22  23
ENDBRANCH  21  22
ENDBRANCH  20  21
ENDBRANCH  18  20
ENDBRANCH  16  18
ENDBRANCH   9  16
BRANCH   6  26
ATOM     26  O2  UNL     1     153.118 160.736 168.880  0.00  0.00    +0.000 OA
BRANCH  26  27
ATOM     27  C8  UNL     1     153.833 159.738 168.194  0.00  0.00    +0.000 A 
ATOM     28  C9  UNL     1     153.663 159.454 166.865  0.00  0.00    +0.000 A 
ATOM     29  C10 UNL     1     154.396 158.453 166.222  0.00  0.00    +0.000 A 
ATOM     30  C11 UNL     1     155.319 157.727 166.941  0.00  0.00    +0.000 A 
ATOM     31  C12 UNL     1     155.520 157.987 168.279  0.00  0.00    +0.000 A 
ATOM     32  C13 UNL     1     154.772 158.979 168.858  0.00  0.00    +0.000 A 
BRANCH  31  33
ATOM     33  C14 UNL     1     156.529 157.198 169.091  0.00  0.00    +0.000 C 
ATOM     34  F1  UNL     1     157.478 158.035 169.623  0.00  0.00    +0.000 F 
ATOM     35  F2  UNL     1     157.128 156.276 168.264  0.00  0.00    +0.000 F 
ATOM     36  F3  UNL     1     155.822 156.554 170.052  0.00  0.00    +0.000 F 
ENDBRANCH  31  33
ENDBRANCH  26  27
ENDBRANCH   6  26
TORSDOF 11
ENDMDL
MODEL 6
REMARK VINA RESULT:      -5.5      2.521      4.364
REMARK  Name = ./3D_structures\o70_MMV000043_3D.pdb
REMARK  15 active torsions:
REMARK  status: ('A' for Active; 'I' for Inactive)
REMARK    1  A    between atoms: C1_1  and  O1_2
REMARK    2  A    between atoms: O1_2  and  C2_3
REMARK    3  A    between atoms: C4_5  and  C5_6
REMARK    4  A    between atoms: C7_8  and  O2_9
REMARK    5  A    between atoms: O2_9  and  C8_10
REMARK    6  A    between atoms: C12_14  and  C14_16
REMARK    7  A    between atoms: C15_20  and  O3_21
REMARK    8  A    between atoms: O3_21  and  C16_22
REMARK    9  A    between atoms: C18_24  and  N1_25
REMARK   10  A    between atoms: N1_25  and  C19_26
REMARK   11  A    between atoms: C19_26  and  C20_27
REMARK   12  A    between atoms: C19_26  and  C21_28
REMARK   13  A    between atoms: C21_28  and  C22_29
REMARK   14  A    between atoms: C22_29  and  C23_30
REMARK   15  A    between atoms: C23_30  and  N2_31
REMARK                            x       y       z     vdW  Elec       q    Type
REMARK                         _______ _______ _______ _____ _____    ______ ____
ROOT
ATOM      1  C2  UNL     1     152.161 162.539 165.148  0.00  0.00    +0.000 C 
ATOM      2  C3  UNL     1     153.039 161.486 165.065  0.00  0.00    +0.000 C 
ATOM      3  C4  UNL     1     153.199 160.597 166.131  0.00  0.00    +0.000 C 
ATOM      4  C5  UNL     1     154.145 159.492 166.056  0.00  0.00    +0.000 C 
ATOM      5  C6  UNL     1     152.462 160.775 167.300  0.00  0.00    +0.000 A 
ATOM      6  C7  UNL     1     152.554 159.922 168.359  0.00  0.00    +0.000 A 
ATOM      7  C15 UNL     1     151.764 160.143 169.490  0.00  0.00    +0.000 A 
ATOM      8  C17 UNL     1     150.895 161.233 169.507  0.00  0.00    +0.000 A 
ATOM      9  C18 UNL     1     150.769 162.114 168.468  0.00  0.00    +0.000 A 
ATOM     10  C24 UNL     1     151.585 161.861 167.343  0.00  0.00    +0.000 A 
ATOM     11  N3  UNL     1     151.474 162.683 166.284  0.00  0.00    +0.000 NA
ENDROOT
BRANCH   1  13
ATOM     12  C1  UNL     1     152.962 164.403 163.882  0.00  0.00    +0.000 C 
ATOM     13  O1  UNL     1     152.018 163.362 164.026  0.00  0.00    +0.000 OA
ENDBRANCH   1  13
BRANCH   7  14
ATOM     14  O3  UNL     1     151.828 159.320 170.577  0.00  0.00    +0.000 OA
ATOM     15  C16 UNL     1     150.919 158.425 171.071  0.00  0.00    +0.000 C 
ENDBRANCH   7  14
BRANCH   9  16
ATOM     16  N1  UNL     1     149.891 163.215 168.486  0.00  0.00    +0.000 N 
ATOM     17  H16 UNL     1     150.453 164.167 168.418  0.00  0.00    +0.000 HD
BRANCH  16  18
ATOM     18  C19 UNL     1     148.527 163.396 168.595  0.00  0.00    +0.000 C 
ATOM     19  C20 UNL     1     147.762 162.302 167.747  0.00  0.00    +0.000 C 
BRANCH  18  20
ATOM     20  C21 UNL     1     147.900 164.652 168.129  0.00  0.00    +0.000 C 
BRANCH  20  21
ATOM     21  C22 UNL     1     147.720 164.965 166.709  0.00  0.00    +0.000 C 
BRANCH  21  22
ATOM     22  C23 UNL     1     148.783 166.002 166.300  0.00  0.00    +0.000 C 
BRANCH  22  23
ATOM     23  N2  UNL     1     149.870 165.227 165.695  0.00  0.00    +0.000 NA
ATOM     24  H27 UNL     1     150.714 165.383 166.323  0.00  0.00    +0.000 HD
ATOM     25  H28 UNL     1     150.094 165.698 164.786  0.00  0.00    +0.000 HD
ENDBRANCH  22  23
ENDBRANCH  21  22
ENDBRANCH  20  21
ENDBRANCH  18  20
ENDBRANCH  16  18
ENDBRANCH   9  16
BRANCH   6  26
ATOM     26  O2  UNL     1     153.393 158.824 168.371  0.00  0.00    +0.000 OA
BRANCH  26  27
ATOM     27  C8  UNL     1     154.483 158.701 169.252  0.00  0.00    +0.000 A 
ATOM     28  C9  UNL     1     154.901 157.510 169.786  0.00  0.00    +0.000 A 
ATOM     29  C10 UNL     1     155.991 157.432 170.656  0.00  0.00    +0.000 A 
ATOM     30  C11 UNL     1     156.669 158.582 170.992  0.00  0.00    +0.000 A 
ATOM     31  C12 UNL     1     156.279 159.796 170.472  0.00  0.00    +0.000 A 
ATOM     32  C13 UNL     1     155.202 159.814 169.623  0.00  0.00    +0.000 A 
BRANCH  31  33
ATOM     33  C14 UNL     1     157.010 161.076 170.829  0.00  0.00    +0.000 C 
ATOM     34  F1  UNL     1     158.230 161.126 170.202  0.00  0.00    +0.000 F 
ATOM     35  F2  UNL     1     157.183 161.113 172.193  0.00  0.00    +0.000 F 
ATOM     36  F3  UNL     1     156.200 162.095 170.446  0.00  0.00    +0.000 F 
ENDBRANCH  31  33
ENDBRANCH  26  27
ENDBRANCH   6  26
TORSDOF 11
ENDMDL
MODEL 7
REMARK VINA RESULT:      -5.5      5.021      8.534
REMARK  Name = ./3D_structures\o70_MMV000043_3D.pdb
REMARK  15 active torsions:
REMARK  status: ('A' for Active; 'I' for Inactive)
REMARK    1  A    between atoms: C1_1  and  O1_2
REMARK    2  A    between atoms: O1_2  and  C2_3
REMARK    3  A    between atoms: C4_5  and  C5_6
REMARK    4  A    between atoms: C7_8  and  O2_9
REMARK    5  A    between atoms: O2_9  and  C8_10
REMARK    6  A    between atoms: C12_14  and  C14_16
REMARK    7  A    between atoms: C15_20  and  O3_21
REMARK    8  A    between atoms: O3_21  and  C16_22
REMARK    9  A    between atoms: C18_24  and  N1_25
REMARK   10  A    between atoms: N1_25  and  C19_26
REMARK   11  A    between atoms: C19_26  and  C20_27
REMARK   12  A    between atoms: C19_26  and  C21_28
REMARK   13  A    between atoms: C21_28  and  C22_29
REMARK   14  A    between atoms: C22_29  and  C23_30
REMARK   15  A    between atoms: C23_30  and  N2_31
REMARK                            x       y       z     vdW  Elec       q    Type
REMARK                         _______ _______ _______ _____ _____    ______ ____
ROOT
ATOM      1  C2  UNL     1     154.937 157.871 166.894  0.00  0.00    +0.000 C 
ATOM      2  C3  UNL     1     154.242 158.669 166.018  0.00  0.00    +0.000 C 
ATOM      3  C4  UNL     1     153.586 159.820 166.460  0.00  0.00    +0.000 C 
ATOM      4  C5  UNL     1     152.830 160.658 165.539  0.00  0.00    +0.000 C 
ATOM      5  C6  UNL     1     153.629 160.171 167.809  0.00  0.00    +0.000 A 
ATOM      6  C7  UNL     1     153.034 161.298 168.291  0.00  0.00    +0.000 A 
ATOM      7  C15 UNL     1     153.142 161.604 169.650  0.00  0.00    +0.000 A 
ATOM      8  C17 UNL     1     153.861 160.748 170.482  0.00  0.00    +0.000 A 
ATOM      9  C18 UNL     1     154.475 159.607 170.043  0.00  0.00    +0.000 A 
ATOM     10  C24 UNL     1     154.342 159.328 168.664  0.00  0.00    +0.000 A 
ATOM     11  N3  UNL     1     154.955 158.232 168.180  0.00  0.00    +0.000 NA
ENDROOT
BRANCH   1  13
ATOM     12  C1  UNL     1     156.626 157.021 165.430  0.00  0.00    +0.000 C 
ATOM     13  O1  UNL     1     155.609 156.759 166.375  0.00  0.00    +0.000 OA
ENDBRANCH   1  13
BRANCH   7  14
ATOM     14  O3  UNL     1     152.556 162.718 170.178  0.00  0.00    +0.000 OA
ATOM     15  C16 UNL     1     153.058 163.973 170.390  0.00  0.00    +0.000 C 
ENDBRANCH   7  14
BRANCH   9  16
ATOM     16  N1  UNL     1     155.201 158.742 170.884  0.00  0.00    +0.000 N 
ATOM     17  H16 UNL     1     154.687 157.766 170.983  0.00  0.00    +0.000 HD
BRANCH  16  18
ATOM     18  C19 UNL     1     156.362 158.823 171.628  0.00  0.00    +0.000 C 
ATOM     19  C20 UNL     1     156.490 160.256 172.285  0.00  0.00    +0.000 C 
BRANCH  18  20
ATOM     20  C21 UNL     1     157.679 158.655 170.977  0.00  0.00    +0.000 C 
BRANCH  20  21
ATOM     21  C22 UNL     1     158.158 159.551 169.922  0.00  0.00    +0.000 C 
BRANCH  21  22
ATOM     22  C23 UNL     1     158.497 158.705 168.680  0.00  0.00    +0.000 C 
BRANCH  22  23
ATOM     23  N2  UNL     1     157.705 157.479 168.817  0.00  0.00    +0.000 NA
ATOM     24  H27 UNL     1     158.204 156.751 168.223  0.00  0.00    +0.000 HD
ATOM     25  H28 UNL     1     156.791 157.667 168.338  0.00  0.00    +0.000 HD
ENDBRANCH  22  23
ENDBRANCH  21  22
ENDBRANCH  20  21
ENDBRANCH  18  20
ENDBRANCH  16  18
ENDBRANCH   9  16
BRANCH   6  26
ATOM     26  O2  UNL     1     152.326 162.176 167.492  0.00  0.00    +0.000 OA
BRANCH  26  27
ATOM     27  C8  UNL     1     150.925 162.292 167.533  0.00  0.00    +0.000 A 
ATOM     28  C9  UNL     1     150.081 161.246 167.802  0.00  0.00    +0.000 A 
ATOM     29  C10 UNL     1     148.694 161.405 167.834  0.00  0.00    +0.000 A 
ATOM     30  C11 UNL     1     148.152 162.647 167.590  0.00  0.00    +0.000 A 
ATOM     31  C12 UNL     1     148.969 163.722 167.319  0.00  0.00    +0.000 A 
ATOM     32  C13 UNL     1     150.324 163.508 167.300  0.00  0.00    +0.000 A 
BRANCH  31  33
ATOM     33  C14 UNL     1     148.395 165.098 167.045  0.00  0.00    +0.000 C 
ATOM     34  F1  UNL     1     149.402 166.013 166.863  0.00  0.00    +0.000 F 
ATOM     35  F2  UNL     1     147.616 165.466 168.118  0.00  0.00    +0.000 F 
ATOM     36  F3  UNL     1     147.617 164.971 165.941  0.00  0.00    +0.000 F 
ENDBRANCH  31  33
ENDBRANCH  26  27
ENDBRANCH   6  26
TORSDOF 11
ENDMDL
MODEL 8
REMARK VINA RESULT:      -5.5      5.571      9.233
REMARK  Name = ./3D_structures\o70_MMV000043_3D.pdb
REMARK  15 active torsions:
REMARK  status: ('A' for Active; 'I' for Inactive)
REMARK    1  A    between atoms: C1_1  and  O1_2
REMARK    2  A    between atoms: O1_2  and  C2_3
REMARK    3  A    between atoms: C4_5  and  C5_6
REMARK    4  A    between atoms: C7_8  and  O2_9
REMARK    5  A    between atoms: O2_9  and  C8_10
REMARK    6  A    between atoms: C12_14  and  C14_16
REMARK    7  A    between atoms: C15_20  and  O3_21
REMARK    8  A    between atoms: O3_21  and  C16_22
REMARK    9  A    between atoms: C18_24  and  N1_25
REMARK   10  A    between atoms: N1_25  and  C19_26
REMARK   11  A    between atoms: C19_26  and  C20_27
REMARK   12  A    between atoms: C19_26  and  C21_28
REMARK   13  A    between atoms: C21_28  and  C22_29
REMARK   14  A    between atoms: C22_29  and  C23_30
REMARK   15  A    between atoms: C23_30  and  N2_31
REMARK                            x       y       z     vdW  Elec       q    Type
REMARK                         _______ _______ _______ _____ _____    ______ ____
ROOT
ATOM      1  C2  UNL     1     146.459 165.650 166.429  0.00  0.00    +0.000 C 
ATOM      2  C3  UNL     1     145.192 165.144 166.580  0.00  0.00    +0.000 C 
ATOM      3  C4  UNL     1     144.989 163.835 167.026  0.00  0.00    +0.000 C 
ATOM      4  C5  UNL     1     143.647 163.286 167.167  0.00  0.00    +0.000 C 
ATOM      5  C6  UNL     1     146.083 163.024 167.321  0.00  0.00    +0.000 A 
ATOM      6  C7  UNL     1     145.945 161.752 167.788  0.00  0.00    +0.000 A 
ATOM      7  C15 UNL     1     147.085 161.004 168.092  0.00  0.00    +0.000 A 
ATOM      8  C17 UNL     1     148.342 161.580 167.913  0.00  0.00    +0.000 A 
ATOM      9  C18 UNL     1     148.528 162.853 167.447  0.00  0.00    +0.000 A 
ATOM     10  C24 UNL     1     147.353 163.578 167.147  0.00  0.00    +0.000 A 
ATOM     11  N3  UNL     1     147.486 164.846 166.716  0.00  0.00    +0.000 NA
ENDROOT
BRANCH   1  13
ATOM     12  C1  UNL     1     145.392 167.662 165.699  0.00  0.00    +0.000 C 
ATOM     13  O1  UNL     1     146.588 166.983 166.023  0.00  0.00    +0.000 OA
ENDBRANCH   1  13
BRANCH   7  14
ATOM     14  O3  UNL     1     146.996 159.722 168.555  0.00  0.00    +0.000 OA
ATOM     15  C16 UNL     1     147.406 158.544 167.995  0.00  0.00    +0.000 C 
ENDBRANCH   7  14
BRANCH   9  16
ATOM     16  N1  UNL     1     149.798 163.435 167.264  0.00  0.00    +0.000 N 
ATOM     17  H16 UNL     1     149.771 164.518 167.493  0.00  0.00    +0.000 HD
BRANCH  16  18
ATOM     18  C19 UNL     1     151.040 162.998 166.850  0.00  0.00    +0.000 C 
ATOM     19  C20 UNL     1     151.918 162.585 168.099  0.00  0.00    +0.000 C 
BRANCH  18  20
ATOM     20  C21 UNL     1     151.945 163.908 166.115  0.00  0.00    +0.000 C 
BRANCH  20  21
ATOM     21  C22 UNL     1     151.638 164.415 164.775  0.00  0.00    +0.000 C 
BRANCH  21  22
ATOM     22  C23 UNL     1     151.322 165.919 164.883  0.00  0.00    +0.000 C 
BRANCH  22  23
ATOM     23  N2  UNL     1     149.954 165.992 165.404  0.00  0.00    +0.000 NA
ATOM     24  H27 UNL     1     149.455 165.137 165.013  0.00  0.00    +0.000 HD
ATOM     25  H28 UNL     1     149.510 166.823 164.943  0.00  0.00    +0.000 HD
ENDBRANCH  22  23
ENDBRANCH  21  22
ENDBRANCH  20  21
ENDBRANCH  18  20
ENDBRANCH  16  18
ENDBRANCH   9  16
BRANCH   6  26
ATOM     26  O2  UNL     1     144.716 161.153 167.992  0.00  0.00    +0.000 OA
BRANCH  26  27
ATOM     27  C8  UNL     1     144.155 160.227 167.095  0.00  0.00    +0.000 A 
ATOM     28  C9  UNL     1     143.039 159.479 167.369  0.00  0.00    +0.000 A 
ATOM     29  C10 UNL     1     142.514 158.571 166.447  0.00  0.00    +0.000 A 
ATOM     30  C11 UNL     1     143.131 158.416 165.226  0.00  0.00    +0.000 A 
ATOM     31  C12 UNL     1     144.252 159.153 164.915  0.00  0.00    +0.000 A 
ATOM     32  C13 UNL     1     144.725 160.029 165.857  0.00  0.00    +0.000 A 
BRANCH  31  33
ATOM     33  C14 UNL     1     144.949 158.998 163.577  0.00  0.00    +0.000 C 
ATOM     34  F1  UNL     1     146.272 158.678 163.757  0.00  0.00    +0.000 F 
ATOM     35  F2  UNL     1     144.844 160.187 162.891  0.00  0.00    +0.000 F 
ATOM     36  F3  UNL     1     144.277 158.028 162.909  0.00  0.00    +0.000 F 
ENDBRANCH  31  33
ENDBRANCH  26  27
ENDBRANCH   6  26
TORSDOF 11
ENDMDL
MODEL 9
REMARK VINA RESULT:      -5.2      5.535      8.804
REMARK  Name = ./3D_structures\o70_MMV000043_3D.pdb
REMARK  15 active torsions:
REMARK  status: ('A' for Active; 'I' for Inactive)
REMARK    1  A    between atoms: C1_1  and  O1_2
REMARK    2  A    between atoms: O1_2  and  C2_3
REMARK    3  A    between atoms: C4_5  and  C5_6
REMARK    4  A    between atoms: C7_8  and  O2_9
REMARK    5  A    between atoms: O2_9  and  C8_10
REMARK    6  A    between atoms: C12_14  and  C14_16
REMARK    7  A    between atoms: C15_20  and  O3_21
REMARK    8  A    between atoms: O3_21  and  C16_22
REMARK    9  A    between atoms: C18_24  and  N1_25
REMARK   10  A    between atoms: N1_25  and  C19_26
REMARK   11  A    between atoms: C19_26  and  C20_27
REMARK   12  A    between atoms: C19_26  and  C21_28
REMARK   13  A    between atoms: C21_28  and  C22_29
REMARK   14  A    between atoms: C22_29  and  C23_30
REMARK   15  A    between atoms: C23_30  and  N2_31
REMARK                            x       y       z     vdW  Elec       q    Type
REMARK                         _______ _______ _______ _____ _____    ______ ____
ROOT
ATOM      1  C2  UNL     1     155.263 159.307 166.494  0.00  0.00    +0.000 C 
ATOM      2  C3  UNL     1     154.292 159.712 165.611  0.00  0.00    +0.000 C 
ATOM      3  C4  UNL     1     153.164 160.408 166.052  0.00  0.00    +0.000 C 
ATOM      4  C5  UNL     1     152.121 160.820 165.122  0.00  0.00    +0.000 C 
ATOM      5  C6  UNL     1     153.012 160.699 167.406  0.00  0.00    +0.000 A 
ATOM      6  C7  UNL     1     151.950 161.402 167.889  0.00  0.00    +0.000 A 
ATOM      7  C15 UNL     1     151.875 161.684 169.255  0.00  0.00    +0.000 A 
ATOM      8  C17 UNL     1     152.896 161.240 170.095  0.00  0.00    +0.000 A 
ATOM      9  C18 UNL     1     153.981 160.533 169.655  0.00  0.00    +0.000 A 
ATOM     10  C24 UNL     1     154.021 160.264 168.269  0.00  0.00    +0.000 A 
ATOM     11  N3  UNL     1     155.085 159.598 167.785  0.00  0.00    +0.000 NA
ENDROOT
BRANCH   1  13
ATOM     12  C1  UNL     1     156.916 159.168 164.771  0.00  0.00    +0.000 C 
ATOM     13  O1  UNL     1     156.388 158.655 165.977  0.00  0.00    +0.000 OA
ENDBRANCH   1  13
BRANCH   7  14
ATOM     14  O3  UNL     1     150.825 162.377 169.785  0.00  0.00    +0.000 OA
ATOM     15  C16 UNL     1     150.787 163.593 170.411  0.00  0.00    +0.000 C 
ENDBRANCH   7  14
BRANCH   9  16
ATOM     16  N1  UNL     1     155.012 160.084 170.504  0.00  0.00    +0.000 N 
ATOM     17  H16 UNL     1     155.055 158.978 170.521  0.00  0.00    +0.000 HD
BRANCH  16  18
ATOM     18  C19 UNL     1     155.947 160.677 171.330  0.00  0.00    +0.000 C 
ATOM     19  C20 UNL     1     156.606 161.918 170.603  0.00  0.00    +0.000 C 
BRANCH  18  20
ATOM     20  C21 UNL     1     157.129 159.915 171.788  0.00  0.00    +0.000 C 
BRANCH  20  21
ATOM     21  C22 UNL     1     157.366 158.521 171.404  0.00  0.00    +0.000 C 
BRANCH  21  22
ATOM     22  C23 UNL     1     158.273 158.506 170.159  0.00  0.00    +0.000 C 
BRANCH  22  23
ATOM     23  N2  UNL     1     157.383 158.200 169.034  0.00  0.00    +0.000 NA
ATOM     24  H27 UNL     1     156.460 158.674 169.266  0.00  0.00    +0.000 HD
ATOM     25  H28 UNL     1     157.200 157.169 169.079  0.00  0.00    +0.000 HD
ENDBRANCH  22  23
ENDBRANCH  21  22
ENDBRANCH  20  21
ENDBRANCH  18  20
ENDBRANCH  16  18
ENDBRANCH   9  16
BRANCH   6  26
ATOM     26  O2  UNL     1     150.928 161.869 167.084  0.00  0.00    +0.000 OA
BRANCH  26  27
ATOM     27  C8  UNL     1     150.740 163.233 166.797  0.00  0.00    +0.000 A 
ATOM     28  C9  UNL     1     151.763 164.102 166.521  0.00  0.00    +0.000 A 
ATOM     29  C10 UNL     1     151.531 165.451 166.239  0.00  0.00    +0.000 A 
ATOM     30  C11 UNL     1     150.239 165.927 166.236  0.00  0.00    +0.000 A 
ATOM     31  C12 UNL     1     149.186 165.082 166.506  0.00  0.00    +0.000 A 
ATOM     32  C13 UNL     1     149.471 163.768 166.777  0.00  0.00    +0.000 A 
BRANCH  31  33
ATOM     33  C14 UNL     1     147.755 165.584 166.511  0.00  0.00    +0.000 C 
ATOM     34  F1  UNL     1     147.247 165.580 167.786  0.00  0.00    +0.000 F 
ATOM     35  F2  UNL     1     147.002 164.761 165.705  0.00  0.00    +0.000 F 
ATOM     36  F3  UNL     1     147.790 166.832 165.980  0.00  0.00    +0.000 F 
ENDBRANCH  31  33
ENDBRANCH  26  27
ENDBRANCH   6  26
TORSDOF 11
ENDMDL
