MODEL 1
REMARK VINA RESULT:      -6.1      0.000      0.000
REMARK  Name = ./3D_structures\o72_MMV1581552_3D.pdb
REMARK  5 active torsions:
REMARK  status: ('A' for Active; 'I' for Inactive)
REMARK    1  A    between atoms: O1_1  and  C1_2
REMARK    2  A    between atoms: C6_8  and  C7_9
REMARK    3  A    between atoms: C7_9  and  N1_10
REMARK    4  A    between atoms: N1_10  and  C15_20
REMARK    5  A    between atoms: N2_13  and  C9_14
REMARK                            x       y       z     vdW  Elec       q    Type
REMARK                         _______ _______ _______ _____ _____    ______ ____
ROOT
ATOM      1  N1  UNL     1     155.176 158.684 170.342  0.00  0.00    +0.000 N 
ATOM      2  C8  UNL     1     153.789 158.510 169.984  0.00  0.00    +0.000 C 
ATOM      3  O2  UNL     1     153.546 157.779 168.961  0.00  0.00    +0.000 OA
ATOM      4  N2  UNL     1     152.668 159.031 170.629  0.00  0.00    +0.000 N 
ATOM      5  H7  UNL     1     152.831 159.696 171.461  0.00  0.00    +0.000 HD
ENDROOT
BRANCH   1   6
ATOM      6  C15 UNL     1     155.555 159.738 171.168  0.00  0.00    +0.000 A 
ATOM      7  C16 UNL     1     155.879 161.001 170.760  0.00  0.00    +0.000 A 
ATOM      8  C17 UNL     1     156.268 161.990 171.662  0.00  0.00    +0.000 A 
ATOM      9  C18 UNL     1     156.330 161.702 173.025  0.00  0.00    +0.000 A 
ATOM     10  F1  UNL     1     156.733 162.679 173.889  0.00  0.00    +0.000 F 
ATOM     11  C19 UNL     1     156.006 160.439 173.467  0.00  0.00    +0.000 A 
ATOM     12  C20 UNL     1     155.627 159.475 172.567  0.00  0.00    +0.000 A 
ENDBRANCH   1   6
BRANCH   4  13
ATOM     13  C9  UNL     1     151.340 158.788 170.251  0.00  0.00    +0.000 A 
ATOM     14  C10 UNL     1     150.621 159.574 169.401  0.00  0.00    +0.000 A 
ATOM     15  C11 UNL     1     149.330 159.184 169.042  0.00  0.00    +0.000 A 
ATOM     16  C12 UNL     1     148.742 158.025 169.520  0.00  0.00    +0.000 A 
ATOM     17  C13 UNL     1     149.489 157.245 170.384  0.00  0.00    +0.000 A 
ATOM     18  C14 UNL     1     150.757 157.610 170.746  0.00  0.00    +0.000 A 
ENDBRANCH   4  13
BRANCH   1  19
ATOM     19  C7  UNL     1     155.996 157.542 169.912  0.00  0.00    +0.000 C 
BRANCH  19  26
ATOM     20  C1  UNL     1     158.396 158.180 169.567  0.00  0.00    +0.000 A 
ATOM     21  C2  UNL     1     159.457 158.330 168.678  0.00  0.00    +0.000 A 
ATOM     22  C3  UNL     1     159.269 158.205 167.278  0.00  0.00    +0.000 A 
ATOM     23  C4  UNL     1     157.994 157.933 166.817  0.00  0.00    +0.000 A 
ATOM     24 BR1  UNL     1     157.765 157.702 164.898  0.00  0.00    +0.000 Br
ATOM     25  C5  UNL     1     156.946 157.788 167.660  0.00  0.00    +0.000 A 
ATOM     26  C6  UNL     1     157.127 157.909 169.087  0.00  0.00    +0.000 A 
BRANCH  20  27
ATOM     27  O1  UNL     1     158.599 158.311 170.956  0.00  0.00    +0.000 OA
ATOM     28  H1  UNL     1     158.349 159.234 171.354  0.00  0.00    +0.000 HD
ENDBRANCH  20  27
ENDBRANCH  19  26
ENDBRANCH   1  19
TORSDOF 5
ENDMDL
MODEL 2
REMARK VINA RESULT:      -6.1      4.606      7.678
REMARK  Name = ./3D_structures\o72_MMV1581552_3D.pdb
REMARK  5 active torsions:
REMARK  status: ('A' for Active; 'I' for Inactive)
REMARK    1  A    between atoms: O1_1  and  C1_2
REMARK    2  A    between atoms: C6_8  and  C7_9
REMARK    3  A    between atoms: C7_9  and  N1_10
REMARK    4  A    between atoms: N1_10  and  C15_20
REMARK    5  A    between atoms: N2_13  and  C9_14
REMARK                            x       y       z     vdW  Elec       q    Type
REMARK                         _______ _______ _______ _____ _____    ______ ____
ROOT
ATOM      1  N1  UNL     1     156.766 157.187 166.547  0.00  0.00    +0.000 N 
ATOM      2  C8  UNL     1     157.377 156.352 165.541  0.00  0.00    +0.000 C 
ATOM      3  O2  UNL     1     158.435 155.718 165.884  0.00  0.00    +0.000 OA
ATOM      4  N2  UNL     1     156.947 156.136 164.232  0.00  0.00    +0.000 N 
ATOM      5  H7  UNL     1     156.092 156.694 163.886  0.00  0.00    +0.000 HD
ENDROOT
BRANCH   1   6
ATOM      6  C15 UNL     1     155.872 158.187 166.174  0.00  0.00    +0.000 A 
ATOM      7  C16 UNL     1     154.540 158.225 166.477  0.00  0.00    +0.000 A 
ATOM      8  C17 UNL     1     153.715 159.261 166.042  0.00  0.00    +0.000 A 
ATOM      9  C18 UNL     1     154.248 160.300 165.280  0.00  0.00    +0.000 A 
ATOM     10  F1  UNL     1     153.419 161.295 164.848  0.00  0.00    +0.000 F 
ATOM     11  C19 UNL     1     155.588 160.292 164.963  0.00  0.00    +0.000 A 
ATOM     12  C20 UNL     1     156.386 159.263 165.396  0.00  0.00    +0.000 A 
ENDBRANCH   1   6
BRANCH   4  13
ATOM     13  C9  UNL     1     157.567 155.278 163.315  0.00  0.00    +0.000 A 
ATOM     14  C10 UNL     1     157.594 153.920 163.421  0.00  0.00    +0.000 A 
ATOM     15  C11 UNL     1     158.180 153.169 162.400  0.00  0.00    +0.000 A 
ATOM     16  C12 UNL     1     158.744 153.750 161.277  0.00  0.00    +0.000 A 
ATOM     17  C13 UNL     1     158.708 155.130 161.193  0.00  0.00    +0.000 A 
ATOM     18  C14 UNL     1     158.137 155.883 162.183  0.00  0.00    +0.000 A 
ENDBRANCH   4  13
BRANCH   1  19
ATOM     19  C7  UNL     1     157.047 156.697 167.904  0.00  0.00    +0.000 C 
BRANCH  19  26
ATOM     20  C1  UNL     1     158.634 158.494 168.639  0.00  0.00    +0.000 A 
ATOM     21  C2  UNL     1     158.871 159.584 169.472  0.00  0.00    +0.000 A 
ATOM     22  C3  UNL     1     157.965 159.935 170.504  0.00  0.00    +0.000 A 
ATOM     23  C4  UNL     1     156.834 159.155 170.666  0.00  0.00    +0.000 A 
ATOM     24 BR1  UNL     1     155.569 159.687 172.046  0.00  0.00    +0.000 Br
ATOM     25  C5  UNL     1     156.583 158.087 169.874  0.00  0.00    +0.000 A 
ATOM     26  C6  UNL     1     157.497 157.725 168.818  0.00  0.00    +0.000 A 
BRANCH  20  27
ATOM     27  O1  UNL     1     159.547 158.156 167.620  0.00  0.00    +0.000 OA
ATOM     28  H1  UNL     1     159.186 158.251 166.654  0.00  0.00    +0.000 HD
ENDBRANCH  20  27
ENDBRANCH  19  26
ENDBRANCH   1  19
TORSDOF 5
ENDMDL
MODEL 3
REMARK VINA RESULT:      -6.1      1.792      2.353
REMARK  Name = ./3D_structures\o72_MMV1581552_3D.pdb
REMARK  5 active torsions:
REMARK  status: ('A' for Active; 'I' for Inactive)
REMARK    1  A    between atoms: O1_1  and  C1_2
REMARK    2  A    between atoms: C6_8  and  C7_9
REMARK    3  A    between atoms: C7_9  and  N1_10
REMARK    4  A    between atoms: N1_10  and  C15_20
REMARK    5  A    between atoms: N2_13  and  C9_14
REMARK                            x       y       z     vdW  Elec       q    Type
REMARK                         _______ _______ _______ _____ _____    ______ ____
ROOT
ATOM      1  N1  UNL     1     155.630 158.129 169.329  0.00  0.00    +0.000 N 
ATOM      2  C8  UNL     1     154.206 157.906 169.277  0.00  0.00    +0.000 C 
ATOM      3  O2  UNL     1     153.785 157.074 168.398  0.00  0.00    +0.000 OA
ATOM      4  N2  UNL     1     153.221 158.477 170.081  0.00  0.00    +0.000 N 
ATOM      5  H7  UNL     1     153.527 159.224 170.795  0.00  0.00    +0.000 HD
ENDROOT
BRANCH   1   6
ATOM      6  C15 UNL     1     156.136 159.264 169.957  0.00  0.00    +0.000 A 
ATOM      7  C16 UNL     1     156.328 160.484 169.374  0.00  0.00    +0.000 A 
ATOM      8  C17 UNL     1     156.861 161.562 170.080  0.00  0.00    +0.000 A 
ATOM      9  C18 UNL     1     157.207 161.411 171.422  0.00  0.00    +0.000 A 
ATOM     10  F1  UNL     1     157.746 162.473 172.090  0.00  0.00    +0.000 F 
ATOM     11  C19 UNL     1     157.021 160.194 172.039  0.00  0.00    +0.000 A 
ATOM     12  C20 UNL     1     156.498 159.141 171.330  0.00  0.00    +0.000 A 
ENDBRANCH   1   6
BRANCH   4  13
ATOM     13  C9  UNL     1     151.853 158.185 170.004  0.00  0.00    +0.000 A 
ATOM     14  C10 UNL     1     151.273 157.054 170.495  0.00  0.00    +0.000 A 
ATOM     15  C11 UNL     1     149.886 156.914 170.423  0.00  0.00    +0.000 A 
ATOM     16  C12 UNL     1     149.067 157.882 169.867  0.00  0.00    +0.000 A 
ATOM     17  C13 UNL     1     149.678 159.020 169.371  0.00  0.00    +0.000 A 
ATOM     18  C14 UNL     1     151.036 159.176 169.434  0.00  0.00    +0.000 A 
ENDBRANCH   4  13
BRANCH   1  19
ATOM     19  C7  UNL     1     156.382 156.958 168.854  0.00  0.00    +0.000 C 
BRANCH  19  26
ATOM     20  C1  UNL     1     156.769 157.171 166.386  0.00  0.00    +0.000 A 
ATOM     21  C2  UNL     1     157.591 157.630 165.361  0.00  0.00    +0.000 A 
ATOM     22  C3  UNL     1     158.879 158.159 165.628  0.00  0.00    +0.000 A 
ATOM     23  C4  UNL     1     159.302 158.202 166.945  0.00  0.00    +0.000 A 
ATOM     24 BR1  UNL     1     161.046 158.989 167.301  0.00  0.00    +0.000 Br
ATOM     25  C5  UNL     1     158.524 157.757 167.959  0.00  0.00    +0.000 A 
ATOM     26  C6  UNL     1     157.210 157.221 167.698  0.00  0.00    +0.000 A 
BRANCH  20  27
ATOM     27  O1  UNL     1     155.494 156.644 166.103  0.00  0.00    +0.000 OA
ATOM     28  H1  UNL     1     154.723 157.336 166.088  0.00  0.00    +0.000 HD
ENDBRANCH  20  27
ENDBRANCH  19  26
ENDBRANCH   1  19
TORSDOF 5
ENDMDL
MODEL 4
REMARK VINA RESULT:      -6.0      8.146     10.172
REMARK  Name = ./3D_structures\o72_MMV1581552_3D.pdb
REMARK  5 active torsions:
REMARK  status: ('A' for Active; 'I' for Inactive)
REMARK    1  A    between atoms: O1_1  and  C1_2
REMARK    2  A    between atoms: C6_8  and  C7_9
REMARK    3  A    between atoms: C7_9  and  N1_10
REMARK    4  A    between atoms: N1_10  and  C15_20
REMARK    5  A    between atoms: N2_13  and  C9_14
REMARK                            x       y       z     vdW  Elec       q    Type
REMARK                         _______ _______ _______ _____ _____    ______ ____
ROOT
ATOM      1  N1  UNL     1     149.889 164.286 167.343  0.00  0.00    +0.000 N 
ATOM      2  C8  UNL     1     148.490 164.557 167.118  0.00  0.00    +0.000 C 
ATOM      3  O2  UNL     1     147.672 164.151 168.015  0.00  0.00    +0.000 OA
ATOM      4  N2  UNL     1     147.912 165.227 166.039  0.00  0.00    +0.000 N 
ATOM      5  H7  UNL     1     148.559 165.536 165.235  0.00  0.00    +0.000 HD
ENDROOT
BRANCH   1   6
ATOM      6  C15 UNL     1     150.789 164.335 166.282  0.00  0.00    +0.000 A 
ATOM      7  C16 UNL     1     151.087 165.438 165.533  0.00  0.00    +0.000 A 
ATOM      8  C17 UNL     1     151.990 165.387 164.473  0.00  0.00    +0.000 A 
ATOM      9  C18 UNL     1     152.622 164.185 164.156  0.00  0.00    +0.000 A 
ATOM     10  F1  UNL     1     153.489 164.151 163.102  0.00  0.00    +0.000 F 
ATOM     11  C19 UNL     1     152.346 163.057 164.896  0.00  0.00    +0.000 A 
ATOM     12  C20 UNL     1     151.452 163.122 165.935  0.00  0.00    +0.000 A 
ENDBRANCH   1   6
BRANCH   4  13
ATOM     13  C9  UNL     1     146.543 165.492 165.900  0.00  0.00    +0.000 A 
ATOM     14  C10 UNL     1     145.994 166.739 165.889  0.00  0.00    +0.000 A 
ATOM     15  C11 UNL     1     144.623 166.876 165.668  0.00  0.00    +0.000 A 
ATOM     16  C12 UNL     1     143.789 165.790 165.460  0.00  0.00    +0.000 A 
ATOM     17  C13 UNL     1     144.369 164.535 165.479  0.00  0.00    +0.000 A 
ATOM     18  C14 UNL     1     145.711 164.380 165.693  0.00  0.00    +0.000 A 
ENDBRANCH   4  13
BRANCH   1  19
ATOM     19  C7  UNL     1     150.199 164.186 168.777  0.00  0.00    +0.000 C 
BRANCH  19  26
ATOM     20  C1  UNL     1     149.501 165.960 170.405  0.00  0.00    +0.000 A 
ATOM     21  C2  UNL     1     149.846 167.108 171.113  0.00  0.00    +0.000 A 
ATOM     22  C3  UNL     1     151.067 167.787 170.868  0.00  0.00    +0.000 A 
ATOM     23  C4  UNL     1     151.908 167.276 169.895  0.00  0.00    +0.000 A 
ATOM     24 BR1  UNL     1     153.607 168.182 169.615  0.00  0.00    +0.000 Br
ATOM     25  C5  UNL     1     151.592 166.165 169.190  0.00  0.00    +0.000 A 
ATOM     26  C6  UNL     1     150.355 165.465 169.435  0.00  0.00    +0.000 A 
BRANCH  20  27
ATOM     27  O1  UNL     1     148.282 165.300 170.659  0.00  0.00    +0.000 OA
ATOM     28  H1  UNL     1     148.356 164.439 171.231  0.00  0.00    +0.000 HD
ENDBRANCH  20  27
ENDBRANCH  19  26
ENDBRANCH   1  19
TORSDOF 5
ENDMDL
MODEL 5
REMARK VINA RESULT:      -5.9      6.829      8.237
REMARK  Name = ./3D_structures\o72_MMV1581552_3D.pdb
REMARK  5 active torsions:
REMARK  status: ('A' for Active; 'I' for Inactive)
REMARK    1  A    between atoms: O1_1  and  C1_2
REMARK    2  A    between atoms: C6_8  and  C7_9
REMARK    3  A    between atoms: C7_9  and  N1_10
REMARK    4  A    between atoms: N1_10  and  C15_20
REMARK    5  A    between atoms: N2_13  and  C9_14
REMARK                            x       y       z     vdW  Elec       q    Type
REMARK                         _______ _______ _______ _____ _____    ______ ____
ROOT
ATOM      1  N1  UNL     1     151.359 164.021 165.731  0.00  0.00    +0.000 N 
ATOM      2  C8  UNL     1     150.213 164.454 166.493  0.00  0.00    +0.000 C 
ATOM      3  O2  UNL     1     149.900 165.693 166.410  0.00  0.00    +0.000 OA
ATOM      4  N2  UNL     1     149.386 163.679 167.307  0.00  0.00    +0.000 N 
ATOM      5  H7  UNL     1     149.648 162.643 167.448  0.00  0.00    +0.000 HD
ENDROOT
BRANCH   1   6
ATOM      6  C15 UNL     1     151.996 162.825 166.047  0.00  0.00    +0.000 A 
ATOM      7  C16 UNL     1     152.674 162.559 167.203  0.00  0.00    +0.000 A 
ATOM      8  C17 UNL     1     153.301 161.334 167.424  0.00  0.00    +0.000 A 
ATOM      9  C18 UNL     1     153.239 160.336 166.452  0.00  0.00    +0.000 A 
ATOM     10  F1  UNL     1     153.876 159.150 166.679  0.00  0.00    +0.000 F 
ATOM     11  C19 UNL     1     152.559 160.573 165.278  0.00  0.00    +0.000 A 
ATOM     12  C20 UNL     1     151.950 161.786 165.073  0.00  0.00    +0.000 A 
ENDBRANCH   1   6
BRANCH   4  13
ATOM     13  C9  UNL     1     148.260 164.156 167.991  0.00  0.00    +0.000 A 
ATOM     14  C10 UNL     1     147.002 164.207 167.472  0.00  0.00    +0.000 A 
ATOM     15  C11 UNL     1     145.948 164.633 168.282  0.00  0.00    +0.000 A 
ATOM     16  C12 UNL     1     146.128 165.013 169.601  0.00  0.00    +0.000 A 
ATOM     17  C13 UNL     1     147.415 164.956 170.106  0.00  0.00    +0.000 A 
ATOM     18  C14 UNL     1     148.460 164.539 169.328  0.00  0.00    +0.000 A 
ENDBRANCH   4  13
BRANCH   1  19
ATOM     19  C7  UNL     1     151.570 164.863 164.544  0.00  0.00    +0.000 C 
BRANCH  19  26
ATOM     20  C1  UNL     1     153.351 166.498 165.209  0.00  0.00    +0.000 A 
ATOM     21  C2  UNL     1     154.700 166.840 165.189  0.00  0.00    +0.000 A 
ATOM     22  C3  UNL     1     155.635 166.110 164.412  0.00  0.00    +0.000 A 
ATOM     23  C4  UNL     1     155.164 165.044 163.665  0.00  0.00    +0.000 A 
ATOM     24 BR1  UNL     1     156.469 164.013 162.654  0.00  0.00    +0.000 Br
ATOM     25  C5  UNL     1     153.857 164.695 163.664  0.00  0.00    +0.000 A 
ATOM     26  C6  UNL     1     152.899 165.429 164.454  0.00  0.00    +0.000 A 
BRANCH  20  27
ATOM     27  O1  UNL     1     152.434 167.237 165.984  0.00  0.00    +0.000 OA
ATOM     28  H1  UNL     1     151.839 167.898 165.453  0.00  0.00    +0.000 HD
ENDBRANCH  20  27
ENDBRANCH  19  26
ENDBRANCH   1  19
TORSDOF 5
ENDMDL
MODEL 6
REMARK VINA RESULT:      -5.9      5.082      7.608
REMARK  Name = ./3D_structures\o72_MMV1581552_3D.pdb
REMARK  5 active torsions:
REMARK  status: ('A' for Active; 'I' for Inactive)
REMARK    1  A    between atoms: O1_1  and  C1_2
REMARK    2  A    between atoms: C6_8  and  C7_9
REMARK    3  A    between atoms: C7_9  and  N1_10
REMARK    4  A    between atoms: N1_10  and  C15_20
REMARK    5  A    between atoms: N2_13  and  C9_14
REMARK                            x       y       z     vdW  Elec       q    Type
REMARK                         _______ _______ _______ _____ _____    ______ ____
ROOT
ATOM      1  N1  UNL     1     158.567 156.985 165.109  0.00  0.00    +0.000 N 
ATOM      2  C8  UNL     1     157.515 157.514 165.942  0.00  0.00    +0.000 C 
ATOM      3  O2  UNL     1     157.844 158.430 166.774  0.00  0.00    +0.000 OA
ATOM      4  N2  UNL     1     156.166 157.160 165.943  0.00  0.00    +0.000 N 
ATOM      5  H7  UNL     1     155.857 156.355 165.296  0.00  0.00    +0.000 HD
ENDROOT
BRANCH   1   6
ATOM      6  C15 UNL     1     158.402 155.759 164.471  0.00  0.00    +0.000 A 
ATOM      7  C16 UNL     1     158.629 154.530 165.024  0.00  0.00    +0.000 A 
ATOM      8  C17 UNL     1     158.454 153.352 164.300  0.00  0.00    +0.000 A 
ATOM      9  C18 UNL     1     158.031 153.410 162.972  0.00  0.00    +0.000 A 
ATOM     10  F1  UNL     1     157.885 152.246 162.274  0.00  0.00    +0.000 F 
ATOM     11  C19 UNL     1     157.790 154.633 162.388  0.00  0.00    +0.000 A 
ATOM     12  C20 UNL     1     157.969 155.784 163.114  0.00  0.00    +0.000 A 
ENDBRANCH   1   6
BRANCH   4  13
ATOM     13  C9  UNL     1     155.184 157.745 166.754  0.00  0.00    +0.000 A 
ATOM     14  C10 UNL     1     154.909 157.365 168.033  0.00  0.00    +0.000 A 
ATOM     15  C11 UNL     1     153.958 158.078 168.765  0.00  0.00    +0.000 A 
ATOM     16  C12 UNL     1     153.272 159.160 168.241  0.00  0.00    +0.000 A 
ATOM     17  C13 UNL     1     153.564 159.525 166.939  0.00  0.00    +0.000 A 
ATOM     18  C14 UNL     1     154.495 158.840 166.207  0.00  0.00    +0.000 A 
ENDBRANCH   4  13
BRANCH   1  19
ATOM     19  C7  UNL     1     159.637 157.970 164.893  0.00  0.00    +0.000 C 
BRANCH  19  26
ATOM     20  C1  UNL     1     161.261 158.125 166.797  0.00  0.00    +0.000 A 
ATOM     21  C2  UNL     1     162.382 157.598 167.432  0.00  0.00    +0.000 A 
ATOM     22  C3  UNL     1     163.148 156.564 166.838  0.00  0.00    +0.000 A 
ATOM     23  C4  UNL     1     162.751 156.094 165.599  0.00  0.00    +0.000 A 
ATOM     24 BR1  UNL     1     163.776 154.630 164.826  0.00  0.00    +0.000 Br
ATOM     25  C5  UNL     1     161.669 156.593 164.959  0.00  0.00    +0.000 A 
ATOM     26  C6  UNL     1     160.880 157.643 165.557  0.00  0.00    +0.000 A 
BRANCH  20  27
ATOM     27  O1  UNL     1     160.512 159.156 167.400  0.00  0.00    +0.000 OA
ATOM     28  H1  UNL     1     159.730 159.526 166.830  0.00  0.00    +0.000 HD
ENDBRANCH  20  27
ENDBRANCH  19  26
ENDBRANCH   1  19
TORSDOF 5
ENDMDL
MODEL 7
REMARK VINA RESULT:      -5.9      3.701      5.669
REMARK  Name = ./3D_structures\o72_MMV1581552_3D.pdb
REMARK  5 active torsions:
REMARK  status: ('A' for Active; 'I' for Inactive)
REMARK    1  A    between atoms: O1_1  and  C1_2
REMARK    2  A    between atoms: C6_8  and  C7_9
REMARK    3  A    between atoms: C7_9  and  N1_10
REMARK    4  A    between atoms: N1_10  and  C15_20
REMARK    5  A    between atoms: N2_13  and  C9_14
REMARK                            x       y       z     vdW  Elec       q    Type
REMARK                         _______ _______ _______ _____ _____    ______ ____
ROOT
ATOM      1  N1  UNL     1     156.716 159.617 167.460  0.00  0.00    +0.000 N 
ATOM      2  C8  UNL     1     156.682 159.720 168.899  0.00  0.00    +0.000 C 
ATOM      3  O2  UNL     1     157.469 158.949 169.551  0.00  0.00    +0.000 OA
ATOM      4  N2  UNL     1     155.901 160.576 169.677  0.00  0.00    +0.000 N 
ATOM      5  H7  UNL     1     155.186 161.202 169.170  0.00  0.00    +0.000 HD
ENDROOT
BRANCH   1   6
ATOM      6  C15 UNL     1     155.659 160.112 166.700  0.00  0.00    +0.000 A 
ATOM      7  C16 UNL     1     155.649 161.294 166.015  0.00  0.00    +0.000 A 
ATOM      8  C17 UNL     1     154.534 161.717 165.294  0.00  0.00    +0.000 A 
ATOM      9  C18 UNL     1     153.389 160.922 165.255  0.00  0.00    +0.000 A 
ATOM     10  F1  UNL     1     152.300 161.365 164.560  0.00  0.00    +0.000 F 
ATOM     11  C19 UNL     1     153.370 159.724 165.932  0.00  0.00    +0.000 A 
ATOM     12  C20 UNL     1     154.475 159.321 166.640  0.00  0.00    +0.000 A 
ENDBRANCH   1   6
BRANCH   4  13
ATOM     13  C9  UNL     1     155.946 160.653 171.075  0.00  0.00    +0.000 A 
ATOM     14  C10 UNL     1     156.860 161.377 171.781  0.00  0.00    +0.000 A 
ATOM     15  C11 UNL     1     156.753 161.435 173.172  0.00  0.00    +0.000 A 
ATOM     16  C12 UNL     1     155.753 160.781 173.871  0.00  0.00    +0.000 A 
ATOM     17  C13 UNL     1     154.839 160.050 173.133  0.00  0.00    +0.000 A 
ATOM     18  C14 UNL     1     154.926 159.982 171.769  0.00  0.00    +0.000 A 
ENDBRANCH   4  13
BRANCH   1  19
ATOM     19  C7  UNL     1     158.026 159.155 166.980  0.00  0.00    +0.000 C 
BRANCH  19  26
ATOM     20  C1  UNL     1     157.458 156.778 166.418  0.00  0.00    +0.000 A 
ATOM     21  C2  UNL     1     157.254 155.821 165.429  0.00  0.00    +0.000 A 
ATOM     22  C3  UNL     1     157.539 156.094 164.067  0.00  0.00    +0.000 A 
ATOM     23  C4  UNL     1     158.035 157.345 163.747  0.00  0.00    +0.000 A 
ATOM     24 BR1  UNL     1     158.362 157.727 161.867  0.00  0.00    +0.000 Br
ATOM     25  C5  UNL     1     158.247 158.291 164.691  0.00  0.00    +0.000 A 
ATOM     26  C6  UNL     1     157.956 158.025 166.079  0.00  0.00    +0.000 A 
BRANCH  20  27
ATOM     27  O1  UNL     1     157.172 156.489 167.767  0.00  0.00    +0.000 OA
ATOM     28  H1  UNL     1     156.344 156.973 168.158  0.00  0.00    +0.000 HD
ENDBRANCH  20  27
ENDBRANCH  19  26
ENDBRANCH   1  19
TORSDOF 5
ENDMDL
MODEL 8
REMARK VINA RESULT:      -5.8      3.911      7.200
REMARK  Name = ./3D_structures\o72_MMV1581552_3D.pdb
REMARK  5 active torsions:
REMARK  status: ('A' for Active; 'I' for Inactive)
REMARK    1  A    between atoms: O1_1  and  C1_2
REMARK    2  A    between atoms: C6_8  and  C7_9
REMARK    3  A    between atoms: C7_9  and  N1_10
REMARK    4  A    between atoms: N1_10  and  C15_20
REMARK    5  A    between atoms: N2_13  and  C9_14
REMARK                            x       y       z     vdW  Elec       q    Type
REMARK                         _______ _______ _______ _____ _____    ______ ____
ROOT
ATOM      1  N1  UNL     1     156.013 158.101 167.848  0.00  0.00    +0.000 N 
ATOM      2  C8  UNL     1     157.044 157.324 167.205  0.00  0.00    +0.000 C 
ATOM      3  O2  UNL     1     157.808 156.636 167.968  0.00  0.00    +0.000 OA
ATOM      4  N2  UNL     1     157.305 157.214 165.839  0.00  0.00    +0.000 N 
ATOM      5  H7  UNL     1     156.720 157.820 165.166  0.00  0.00    +0.000 HD
ENDROOT
BRANCH   1   6
ATOM      6  C15 UNL     1     155.402 159.150 167.167  0.00  0.00    +0.000 A 
ATOM      7  C16 UNL     1     155.885 160.424 167.059  0.00  0.00    +0.000 A 
ATOM      8  C17 UNL     1     155.192 161.418 166.370  0.00  0.00    +0.000 A 
ATOM      9  C18 UNL     1     153.972 161.121 165.763  0.00  0.00    +0.000 A 
ATOM     10  F1  UNL     1     153.299 162.114 165.110  0.00  0.00    +0.000 F 
ATOM     11  C19 UNL     1     153.462 159.846 165.851  0.00  0.00    +0.000 A 
ATOM     12  C20 UNL     1     154.155 158.878 166.535  0.00  0.00    +0.000 A 
ENDBRANCH   1   6
BRANCH   4  13
ATOM     13  C9  UNL     1     158.301 156.407 165.275  0.00  0.00    +0.000 A 
ATOM     14  C10 UNL     1     159.597 156.788 165.093  0.00  0.00    +0.000 A 
ATOM     15  C11 UNL     1     160.514 155.864 164.590  0.00  0.00    +0.000 A 
ATOM     16  C12 UNL     1     160.160 154.566 164.261  0.00  0.00    +0.000 A 
ATOM     17  C13 UNL     1     158.839 154.203 164.451  0.00  0.00    +0.000 A 
ATOM     18  C14 UNL     1     157.926 155.094 164.945  0.00  0.00    +0.000 A 
ENDBRANCH   4  13
BRANCH   1  19
ATOM     19  C7  UNL     1     155.605 157.507 169.130  0.00  0.00    +0.000 C 
BRANCH  19  26
ATOM     20  C1  UNL     1     156.943 158.683 170.894  0.00  0.00    +0.000 A 
ATOM     21  C2  UNL     1     157.001 159.698 171.844  0.00  0.00    +0.000 A 
ATOM     22  C3  UNL     1     155.854 160.462 172.179  0.00  0.00    +0.000 A 
ATOM     23  C4  UNL     1     154.667 160.163 171.535  0.00  0.00    +0.000 A 
ATOM     24 BR1  UNL     1     153.116 161.261 171.959  0.00  0.00    +0.000 Br
ATOM     25  C5  UNL     1     154.583 159.177 170.612  0.00  0.00    +0.000 A 
ATOM     26  C6  UNL     1     155.745 158.398 170.261  0.00  0.00    +0.000 A 
BRANCH  20  27
ATOM     27  O1  UNL     1     158.092 157.931 170.576  0.00  0.00    +0.000 OA
ATOM     28  H1  UNL     1     158.098 156.959 170.934  0.00  0.00    +0.000 HD
ENDBRANCH  20  27
ENDBRANCH  19  26
ENDBRANCH   1  19
TORSDOF 5
ENDMDL
MODEL 9
REMARK VINA RESULT:      -5.8      3.873      8.106
REMARK  Name = ./3D_structures\o72_MMV1581552_3D.pdb
REMARK  5 active torsions:
REMARK  status: ('A' for Active; 'I' for Inactive)
REMARK    1  A    between atoms: O1_1  and  C1_2
REMARK    2  A    between atoms: C6_8  and  C7_9
REMARK    3  A    between atoms: C7_9  and  N1_10
REMARK    4  A    between atoms: N1_10  and  C15_20
REMARK    5  A    between atoms: N2_13  and  C9_14
REMARK                            x       y       z     vdW  Elec       q    Type
REMARK                         _______ _______ _______ _____ _____    ______ ____
ROOT
ATOM      1  N1  UNL     1     157.719 158.776 168.043  0.00  0.00    +0.000 N 
ATOM      2  C8  UNL     1     159.156 158.661 168.092  0.00  0.00    +0.000 C 
ATOM      3  O2  UNL     1     159.659 158.161 169.159  0.00  0.00    +0.000 OA
ATOM      4  N2  UNL     1     160.077 159.017 167.106  0.00  0.00    +0.000 N 
ATOM      5  H7  UNL     1     159.699 159.492 166.215  0.00  0.00    +0.000 HD
ENDROOT
BRANCH   1   6
ATOM      6  C15 UNL     1     157.119 159.635 167.127  0.00  0.00    +0.000 A 
ATOM      7  C16 UNL     1     157.000 160.989 167.257  0.00  0.00    +0.000 A 
ATOM      8  C17 UNL     1     156.363 161.769 166.293  0.00  0.00    +0.000 A 
ATOM      9  C18 UNL     1     155.829 161.167 165.154  0.00  0.00    +0.000 A 
ATOM     10  F1  UNL     1     155.191 161.946 164.231  0.00  0.00    +0.000 F 
ATOM     11  C19 UNL     1     155.937 159.804 164.992  0.00  0.00    +0.000 A 
ATOM     12  C20 UNL     1     156.565 159.049 165.952  0.00  0.00    +0.000 A 
ENDBRANCH   1   6
BRANCH   4  13
ATOM     13  C9  UNL     1     161.463 158.842 167.202  0.00  0.00    +0.000 A 
ATOM     14  C10 UNL     1     162.357 159.845 167.430  0.00  0.00    +0.000 A 
ATOM     15  C11 UNL     1     163.708 159.530 167.581  0.00  0.00    +0.000 A 
ATOM     16  C12 UNL     1     164.185 158.233 167.505  0.00  0.00    +0.000 A 
ATOM     17  C13 UNL     1     163.260 157.232 167.269  0.00  0.00    +0.000 A 
ATOM     18  C14 UNL     1     161.931 157.520 167.120  0.00  0.00    +0.000 A 
ENDBRANCH   4  13
BRANCH   1  19
ATOM     19  C7  UNL     1     157.065 157.763 168.884  0.00  0.00    +0.000 C 
BRANCH  19  26
ATOM     20  C1  UNL     1     156.867 158.667 171.214  0.00  0.00    +0.000 A 
ATOM     21  C2  UNL     1     156.103 159.368 172.142  0.00  0.00    +0.000 A 
ATOM     22  C3  UNL     1     154.763 159.741 171.864  0.00  0.00    +0.000 A 
ATOM     23  C4  UNL     1     154.232 159.381 170.638  0.00  0.00    +0.000 A 
ATOM     24 BR1  UNL     1     152.414 159.955 170.246  0.00  0.00    +0.000 Br
ATOM     25  C5  UNL     1     154.953 158.695 169.722  0.00  0.00    +0.000 A 
ATOM     26  C6  UNL     1     156.318 158.315 169.994  0.00  0.00    +0.000 A 
BRANCH  20  27
ATOM     27  O1  UNL     1     158.196 158.301 171.508  0.00  0.00    +0.000 OA
ATOM     28  H1  UNL     1     158.747 157.952 170.703  0.00  0.00    +0.000 HD
ENDBRANCH  20  27
ENDBRANCH  19  26
ENDBRANCH   1  19
TORSDOF 5
ENDMDL
