MODEL 1
REMARK VINA RESULT:      -6.9      0.000      0.000
REMARK  Name = ./3D_structures\o73_MMV1581551_3D.pdb
REMARK  1 active torsions:
REMARK  status: ('A' for Active; 'I' for Inactive)
REMARK    1  A    between atoms: C6_10  and  C14_20
REMARK                            x       y       z     vdW  Elec       q    Type
REMARK                         _______ _______ _______ _____ _____    ______ ____
ROOT
ATOM      1  C1  UNL     1     153.586 162.641 167.557  0.00  0.00    +0.000 C 
ATOM      2  C2  UNL     1     153.349 162.172 169.013  0.00  0.00    +0.000 C 
ATOM      3  N1  UNL     1     153.584 160.757 169.063  0.00  0.00    +0.000 N 
ATOM      4  C3  UNL     1     152.702 159.920 168.302  0.00  0.00    +0.000 C 
ATOM      5  C4  UNL     1     152.160 160.760 167.164  0.00  0.00    +0.000 C 
ATOM      6  N2  UNL     1     153.227 161.571 166.644  0.00  0.00    +0.000 NA
ATOM      7  C5  UNL     1     154.626 160.159 169.806  0.00  0.00    +0.000 A 
ATOM      8  N3  UNL     1     155.658 159.518 169.223  0.00  0.00    +0.000 NA
ATOM      9  N4  UNL     1     156.645 158.969 169.895  0.00  0.00    +0.000 N 
ATOM     10  C6  UNL     1     157.756 158.289 169.467  0.00  0.00    +0.000 A 
ATOM     11  N5  UNL     1     158.415 157.959 170.603  0.00  0.00    +0.000 NA
ATOM     12  N6  UNL     1     157.748 158.409 171.645  0.00  0.00    +0.000 NA
ATOM     13  C7  UNL     1     156.640 159.042 171.235  0.00  0.00    +0.000 A 
ATOM     14  C8  UNL     1     155.618 159.681 171.898  0.00  0.00    +0.000 A 
ATOM     15  C9  UNL     1     155.575 159.774 173.274  0.00  0.00    +0.000 A 
ATOM     16  C10 UNL     1     154.544 160.414 173.925  0.00  0.00    +0.000 A 
ATOM     17  C11 UNL     1     153.526 160.977 173.189  0.00  0.00    +0.000 A 
ATOM     18  C12 UNL     1     153.533 160.903 171.796  0.00  0.00    +0.000 A 
ATOM     19  C13 UNL     1     154.588 160.253 171.176  0.00  0.00    +0.000 A 
ATOM     20  H9  UNL     1     152.954 162.006 165.748  0.00  0.00    +0.000 HD
ENDROOT
BRANCH  10  21
ATOM     21  C14 UNL     1     158.149 157.987 168.099  0.00  0.00    +0.000 A 
ATOM     22  C15 UNL     1     159.189 158.613 167.460  0.00  0.00    +0.000 A 
ATOM     23  C16 UNL     1     159.538 158.299 166.151  0.00  0.00    +0.000 A 
ATOM     24  C17 UNL     1     158.830 157.338 165.471  0.00  0.00    +0.000 A 
ATOM     25  C18 UNL     1     157.790 156.707 166.099  0.00  0.00    +0.000 A 
ATOM     26  C19 UNL     1     157.446 157.028 167.413  0.00  0.00    +0.000 A 
ENDBRANCH  10  21
TORSDOF 1
ENDMDL
MODEL 2
REMARK VINA RESULT:      -6.6      1.574      5.569
REMARK  Name = ./3D_structures\o73_MMV1581551_3D.pdb
REMARK  1 active torsions:
REMARK  status: ('A' for Active; 'I' for Inactive)
REMARK    1  A    between atoms: C6_10  and  C14_20
REMARK                            x       y       z     vdW  Elec       q    Type
REMARK                         _______ _______ _______ _____ _____    ______ ____
ROOT
ATOM      1  C1  UNL     1     152.766 160.723 166.770  0.00  0.00    +0.000 C 
ATOM      2  C2  UNL     1     154.035 160.217 166.040  0.00  0.00    +0.000 C 
ATOM      3  N1  UNL     1     155.177 160.769 166.710  0.00  0.00    +0.000 N 
ATOM      4  C3  UNL     1     155.328 162.194 166.680  0.00  0.00    +0.000 C 
ATOM      5  C4  UNL     1     153.946 162.787 166.502  0.00  0.00    +0.000 C 
ATOM      6  N2  UNL     1     153.021 162.044 167.314  0.00  0.00    +0.000 NA
ATOM      7  C5  UNL     1     156.139 159.990 167.392  0.00  0.00    +0.000 A 
ATOM      8  N3  UNL     1     156.307 160.050 168.728  0.00  0.00    +0.000 NA
ATOM      9  N4  UNL     1     157.185 159.323 169.383  0.00  0.00    +0.000 N 
ATOM     10  C6  UNL     1     157.482 159.261 170.719  0.00  0.00    +0.000 A 
ATOM     11  N5  UNL     1     158.469 158.338 170.809  0.00  0.00    +0.000 NA
ATOM     12  N6  UNL     1     158.748 157.876 169.608  0.00  0.00    +0.000 NA
ATOM     13  C7  UNL     1     157.964 158.472 168.699  0.00  0.00    +0.000 A 
ATOM     14  C8  UNL     1     157.848 158.358 167.333  0.00  0.00    +0.000 A 
ATOM     15  C9  UNL     1     158.633 157.497 166.595  0.00  0.00    +0.000 A 
ATOM     16  C10 UNL     1     158.509 157.396 165.227  0.00  0.00    +0.000 A 
ATOM     17  C11 UNL     1     157.579 158.172 164.573  0.00  0.00    +0.000 A 
ATOM     18  C12 UNL     1     156.768 159.055 165.285  0.00  0.00    +0.000 A 
ATOM     19  C13 UNL     1     156.920 159.129 166.660  0.00  0.00    +0.000 A 
ATOM     20  H9  UNL     1     152.114 162.534 167.377  0.00  0.00    +0.000 HD
ENDROOT
BRANCH  10  21
ATOM     21  C14 UNL     1     156.876 160.014 171.808  0.00  0.00    +0.000 A 
ATOM     22  C15 UNL     1     157.138 161.339 172.042  0.00  0.00    +0.000 A 
ATOM     23  C16 UNL     1     156.542 162.028 173.092  0.00  0.00    +0.000 A 
ATOM     24  C17 UNL     1     155.666 161.374 173.924  0.00  0.00    +0.000 A 
ATOM     25  C18 UNL     1     155.397 160.050 173.699  0.00  0.00    +0.000 A 
ATOM     26  C19 UNL     1     156.000 159.366 172.643  0.00  0.00    +0.000 A 
ENDBRANCH  10  21
TORSDOF 1
ENDMDL
MODEL 3
REMARK VINA RESULT:      -6.3      3.530      6.372
REMARK  Name = ./3D_structures\o73_MMV1581551_3D.pdb
REMARK  1 active torsions:
REMARK  status: ('A' for Active; 'I' for Inactive)
REMARK    1  A    between atoms: C6_10  and  C14_20
REMARK                            x       y       z     vdW  Elec       q    Type
REMARK                         _______ _______ _______ _____ _____    ______ ____
ROOT
ATOM      1  C1  UNL     1     156.412 158.462 172.051  0.00  0.00    +0.000 C 
ATOM      2  C2  UNL     1     156.436 157.937 170.594  0.00  0.00    +0.000 C 
ATOM      3  N1  UNL     1     156.698 159.052 169.730  0.00  0.00    +0.000 N 
ATOM      4  C3  UNL     1     155.712 160.093 169.687  0.00  0.00    +0.000 C 
ATOM      5  C4  UNL     1     154.970 160.060 171.006  0.00  0.00    +0.000 C 
ATOM      6  N2  UNL     1     155.920 159.827 172.060  0.00  0.00    +0.000 NA
ATOM      7  C5  UNL     1     157.861 159.175 168.938  0.00  0.00    +0.000 A 
ATOM      8  N3  UNL     1     158.788 160.129 169.153  0.00  0.00    +0.000 NA
ATOM      9  N4  UNL     1     159.885 160.251 168.438  0.00  0.00    +0.000 N 
ATOM     10  C6  UNL     1     160.916 161.150 168.520  0.00  0.00    +0.000 A 
ATOM     11  N5  UNL     1     161.765 160.790 167.529  0.00  0.00    +0.000 NA
ATOM     12  N6  UNL     1     161.279 159.745 166.892  0.00  0.00    +0.000 NA
ATOM     13  C7  UNL     1     160.108 159.387 167.436  0.00  0.00    +0.000 A 
ATOM     14  C8  UNL     1     159.205 158.387 167.158  0.00  0.00    +0.000 A 
ATOM     15  C9  UNL     1     159.396 157.483 166.135  0.00  0.00    +0.000 A 
ATOM     16  C10 UNL     1     158.481 156.489 165.866  0.00  0.00    +0.000 A 
ATOM     17  C11 UNL     1     157.343 156.391 166.634  0.00  0.00    +0.000 A 
ATOM     18  C12 UNL     1     157.114 157.287 167.678  0.00  0.00    +0.000 A 
ATOM     19  C13 UNL     1     158.057 158.273 167.920  0.00  0.00    +0.000 A 
ATOM     20  H9  UNL     1     155.491 159.995 172.985  0.00  0.00    +0.000 HD
ENDROOT
BRANCH  10  21
ATOM     21  C14 UNL     1     161.074 162.249 169.461  0.00  0.00    +0.000 A 
ATOM     22  C15 UNL     1     160.017 162.867 170.080  0.00  0.00    +0.000 A 
ATOM     23  C16 UNL     1     160.204 163.915 170.973  0.00  0.00    +0.000 A 
ATOM     24  C17 UNL     1     161.476 164.351 171.253  0.00  0.00    +0.000 A 
ATOM     25  C18 UNL     1     162.539 163.742 170.641  0.00  0.00    +0.000 A 
ATOM     26  C19 UNL     1     162.342 162.690 169.745  0.00  0.00    +0.000 A 
ENDBRANCH  10  21
TORSDOF 1
ENDMDL
MODEL 4
REMARK VINA RESULT:      -6.2      3.072      7.738
REMARK  Name = ./3D_structures\o73_MMV1581551_3D.pdb
REMARK  1 active torsions:
REMARK  status: ('A' for Active; 'I' for Inactive)
REMARK    1  A    between atoms: C6_10  and  C14_20
REMARK                            x       y       z     vdW  Elec       q    Type
REMARK                         _______ _______ _______ _____ _____    ______ ____
ROOT
ATOM      1  C1  UNL     1     162.007 160.240 165.917  0.00  0.00    +0.000 C 
ATOM      2  C2  UNL     1     161.557 158.906 165.272  0.00  0.00    +0.000 C 
ATOM      3  N1  UNL     1     161.055 158.060 166.317  0.00  0.00    +0.000 N 
ATOM      4  C3  UNL     1     161.986 157.640 167.323  0.00  0.00    +0.000 C 
ATOM      5  C4  UNL     1     163.082 158.683 167.382  0.00  0.00    +0.000 C 
ATOM      6  N2  UNL     1     162.483 159.984 167.264  0.00  0.00    +0.000 NA
ATOM      7  C5  UNL     1     159.711 157.634 166.405  0.00  0.00    +0.000 A 
ATOM      8  N3  UNL     1     158.889 158.025 167.399  0.00  0.00    +0.000 NA
ATOM      9  N4  UNL     1     157.632 157.653 167.491  0.00  0.00    +0.000 N 
ATOM     10  C6  UNL     1     156.671 157.952 168.422  0.00  0.00    +0.000 A 
ATOM     11  N5  UNL     1     155.568 157.288 168.003  0.00  0.00    +0.000 NA
ATOM     12  N6  UNL     1     155.845 156.631 166.895  0.00  0.00    +0.000 NA
ATOM     13  C7  UNL     1     157.123 156.840 166.553  0.00  0.00    +0.000 A 
ATOM     14  C8  UNL     1     157.904 156.400 165.508  0.00  0.00    +0.000 A 
ATOM     15  C9  UNL     1     157.419 155.561 164.526  0.00  0.00    +0.000 A 
ATOM     16  C10 UNL     1     158.213 155.126 163.489  0.00  0.00    +0.000 A 
ATOM     17  C11 UNL     1     159.527 155.535 163.424  0.00  0.00    +0.000 A 
ATOM     18  C12 UNL     1     160.053 156.383 164.399  0.00  0.00    +0.000 A 
ATOM     19  C13 UNL     1     159.224 156.801 165.427  0.00  0.00    +0.000 A 
ATOM     20  H9  UNL     1     163.164 160.724 167.498  0.00  0.00    +0.000 HD
ENDROOT
BRANCH  10  21
ATOM     21  C14 UNL     1     156.797 158.797 169.600  0.00  0.00    +0.000 A 
ATOM     22  C15 UNL     1     156.941 160.160 169.536  0.00  0.00    +0.000 A 
ATOM     23  C16 UNL     1     157.059 160.938 170.681  0.00  0.00    +0.000 A 
ATOM     24  C17 UNL     1     157.033 160.337 171.917  0.00  0.00    +0.000 A 
ATOM     25  C18 UNL     1     156.891 158.977 171.993  0.00  0.00    +0.000 A 
ATOM     26  C19 UNL     1     156.772 158.203 170.837  0.00  0.00    +0.000 A 
ENDBRANCH  10  21
TORSDOF 1
ENDMDL
MODEL 5
REMARK VINA RESULT:      -6.2      2.753      3.633
REMARK  Name = ./3D_structures\o73_MMV1581551_3D.pdb
REMARK  1 active torsions:
REMARK  status: ('A' for Active; 'I' for Inactive)
REMARK    1  A    between atoms: C6_10  and  C14_20
REMARK                            x       y       z     vdW  Elec       q    Type
REMARK                         _______ _______ _______ _____ _____    ______ ____
ROOT
ATOM      1  C1  UNL     1     160.643 162.577 169.153  0.00  0.00    +0.000 C 
ATOM      2  C2  UNL     1     159.499 162.579 170.197  0.00  0.00    +0.000 C 
ATOM      3  N1  UNL     1     158.314 162.093 169.550  0.00  0.00    +0.000 N 
ATOM      4  C3  UNL     1     157.781 162.883 168.479  0.00  0.00    +0.000 C 
ATOM      5  C4  UNL     1     158.930 163.677 167.895  0.00  0.00    +0.000 C 
ATOM      6  N2  UNL     1     160.090 162.829 167.835  0.00  0.00    +0.000 NA
ATOM      7  C5  UNL     1     157.662 160.891 169.907  0.00  0.00    +0.000 A 
ATOM      8  N3  UNL     1     157.603 159.825 169.085  0.00  0.00    +0.000 NA
ATOM      9  N4  UNL     1     157.015 158.694 169.404  0.00  0.00    +0.000 N 
ATOM     10  C6  UNL     1     156.865 157.529 168.698  0.00  0.00    +0.000 A 
ATOM     11  N5  UNL     1     156.176 156.710 169.528  0.00  0.00    +0.000 NA
ATOM     12  N6  UNL     1     155.927 157.339 170.658  0.00  0.00    +0.000 NA
ATOM     13  C7  UNL     1     156.438 158.577 170.609  0.00  0.00    +0.000 A 
ATOM     14  C8  UNL     1     156.459 159.624 171.501  0.00  0.00    +0.000 A 
ATOM     15  C9  UNL     1     155.874 159.545 172.747  0.00  0.00    +0.000 A 
ATOM     16  C10 UNL     1     155.899 160.603 173.628  0.00  0.00    +0.000 A 
ATOM     17  C11 UNL     1     156.523 161.774 173.261  0.00  0.00    +0.000 A 
ATOM     18  C12 UNL     1     157.126 161.893 172.009  0.00  0.00    +0.000 A 
ATOM     19  C13 UNL     1     157.081 160.808 171.150  0.00  0.00    +0.000 A 
ATOM     20  H9  UNL     1     160.833 163.264 167.265  0.00  0.00    +0.000 HD
ENDROOT
BRANCH  10  21
ATOM     21  C14 UNL     1     157.338 157.227 167.355  0.00  0.00    +0.000 A 
ATOM     22  C15 UNL     1     158.635 157.425 166.953  0.00  0.00    +0.000 A 
ATOM     23  C16 UNL     1     159.054 157.126 165.662  0.00  0.00    +0.000 A 
ATOM     24  C17 UNL     1     158.155 156.618 164.756  0.00  0.00    +0.000 A 
ATOM     25  C18 UNL     1     156.858 156.417 165.146  0.00  0.00    +0.000 A 
ATOM     26  C19 UNL     1     156.445 156.719 166.445  0.00  0.00    +0.000 A 
ENDBRANCH  10  21
TORSDOF 1
ENDMDL
MODEL 6
REMARK VINA RESULT:      -6.0      3.128      3.683
REMARK  Name = ./3D_structures\o73_MMV1581551_3D.pdb
REMARK  1 active torsions:
REMARK  status: ('A' for Active; 'I' for Inactive)
REMARK    1  A    between atoms: C6_10  and  C14_20
REMARK                            x       y       z     vdW  Elec       q    Type
REMARK                         _______ _______ _______ _____ _____    ______ ____
ROOT
ATOM      1  C1  UNL     1     153.837 163.740 165.622  0.00  0.00    +0.000 C 
ATOM      2  C2  UNL     1     152.799 163.081 166.564  0.00  0.00    +0.000 C 
ATOM      3  N1  UNL     1     152.609 161.727 166.129  0.00  0.00    +0.000 N 
ATOM      4  C3  UNL     1     152.040 161.530 164.828  0.00  0.00    +0.000 C 
ATOM      5  C4  UNL     1     152.367 162.760 164.007  0.00  0.00    +0.000 C 
ATOM      6  N2  UNL     1     153.718 163.159 164.297  0.00  0.00    +0.000 NA
ATOM      7  C5  UNL     1     152.955 160.598 166.905  0.00  0.00    +0.000 A 
ATOM      8  N3  UNL     1     153.937 159.746 166.550  0.00  0.00    +0.000 NA
ATOM      9  N4  UNL     1     154.284 158.699 167.266  0.00  0.00    +0.000 N 
ATOM     10  C6  UNL     1     155.245 157.745 167.054  0.00  0.00    +0.000 A 
ATOM     11  N5  UNL     1     155.146 156.917 168.121  0.00  0.00    +0.000 NA
ATOM     12  N6  UNL     1     154.191 157.342 168.920  0.00  0.00    +0.000 NA
ATOM     13  C7  UNL     1     153.635 158.451 168.413  0.00  0.00    +0.000 A 
ATOM     14  C8  UNL     1     152.621 159.277 168.838  0.00  0.00    +0.000 A 
ATOM     15  C9  UNL     1     151.928 159.053 170.009  0.00  0.00    +0.000 A 
ATOM     16  C10 UNL     1     150.912 159.887 170.421  0.00  0.00    +0.000 A 
ATOM     17  C11 UNL     1     150.574 160.974 169.647  0.00  0.00    +0.000 A 
ATOM     18  C12 UNL     1     151.251 161.234 168.456  0.00  0.00    +0.000 A 
ATOM     19  C13 UNL     1     152.268 160.374 168.074  0.00  0.00    +0.000 A 
ATOM     20  H9  UNL     1     154.045 163.865 163.618  0.00  0.00    +0.000 HD
ENDROOT
BRANCH  10  21
ATOM     21  C14 UNL     1     156.172 157.638 165.937  0.00  0.00    +0.000 A 
ATOM     22  C15 UNL     1     156.582 156.439 165.413  0.00  0.00    +0.000 A 
ATOM     23  C16 UNL     1     157.469 156.373 164.345  0.00  0.00    +0.000 A 
ATOM     24  C17 UNL     1     157.954 157.533 163.791  0.00  0.00    +0.000 A 
ATOM     25  C18 UNL     1     157.552 158.736 164.307  0.00  0.00    +0.000 A 
ATOM     26  C19 UNL     1     156.661 158.794 165.380  0.00  0.00    +0.000 A 
ENDBRANCH  10  21
TORSDOF 1
ENDMDL
MODEL 7
REMARK VINA RESULT:      -6.0      3.945      7.431
REMARK  Name = ./3D_structures\o73_MMV1581551_3D.pdb
REMARK  1 active torsions:
REMARK  status: ('A' for Active; 'I' for Inactive)
REMARK    1  A    between atoms: C6_10  and  C14_20
REMARK                            x       y       z     vdW  Elec       q    Type
REMARK                         _______ _______ _______ _____ _____    ______ ____
ROOT
ATOM      1  C1  UNL     1     157.776 158.224 170.122  0.00  0.00    +0.000 C 
ATOM      2  C2  UNL     1     157.504 157.743 168.676  0.00  0.00    +0.000 C 
ATOM      3  N1  UNL     1     158.325 158.521 167.792  0.00  0.00    +0.000 N 
ATOM      4  C3  UNL     1     158.061 159.928 167.723  0.00  0.00    +0.000 C 
ATOM      5  C4  UNL     1     157.426 160.329 169.038  0.00  0.00    +0.000 C 
ATOM      6  N2  UNL     1     158.103 159.638 170.103  0.00  0.00    +0.000 NA
ATOM      7  C5  UNL     1     159.365 157.978 167.005  0.00  0.00    +0.000 A 
ATOM      8  N3  UNL     1     160.662 158.281 167.208  0.00  0.00    +0.000 NA
ATOM      9  N4  UNL     1     161.646 157.775 166.498  0.00  0.00    +0.000 N 
ATOM     10  C6  UNL     1     163.000 157.973 166.570  0.00  0.00    +0.000 A 
ATOM     11  N5  UNL     1     163.514 157.190 165.591  0.00  0.00    +0.000 NA
ATOM     12  N6  UNL     1     162.536 156.564 164.970  0.00  0.00    +0.000 NA
ATOM     13  C7  UNL     1     161.360 156.909 165.514  0.00  0.00    +0.000 A 
ATOM     14  C8  UNL     1     160.058 156.554 165.249  0.00  0.00    +0.000 A 
ATOM     15  C9  UNL     1     159.723 155.671 164.244  0.00  0.00    +0.000 A 
ATOM     16  C10 UNL     1     158.415 155.327 163.988  0.00  0.00    +0.000 A 
ATOM     17  C11 UNL     1     157.409 155.876 164.751  0.00  0.00    +0.000 A 
ATOM     18  C12 UNL     1     157.707 156.773 165.776  0.00  0.00    +0.000 A 
ATOM     19  C13 UNL     1     159.035 157.095 166.005  0.00  0.00    +0.000 A 
ATOM     20  H9  UNL     1     157.838 160.031 171.021  0.00  0.00    +0.000 HD
ENDROOT
BRANCH  10  21
ATOM     21  C14 UNL     1     163.734 158.828 167.491  0.00  0.00    +0.000 A 
ATOM     22  C15 UNL     1     163.500 160.174 167.615  0.00  0.00    +0.000 A 
ATOM     23  C16 UNL     1     164.219 160.963 168.505  0.00  0.00    +0.000 A 
ATOM     24  C17 UNL     1     165.193 160.390 169.287  0.00  0.00    +0.000 A 
ATOM     25  C18 UNL     1     165.436 159.047 169.171  0.00  0.00    +0.000 A 
ATOM     26  C19 UNL     1     164.708 158.262 168.275  0.00  0.00    +0.000 A 
ENDBRANCH  10  21
TORSDOF 1
ENDMDL
MODEL 8
REMARK VINA RESULT:      -5.9      4.027      7.920
REMARK  Name = ./3D_structures\o73_MMV1581551_3D.pdb
REMARK  1 active torsions:
REMARK  status: ('A' for Active; 'I' for Inactive)
REMARK    1  A    between atoms: C6_10  and  C14_20
REMARK                            x       y       z     vdW  Elec       q    Type
REMARK                         _______ _______ _______ _____ _____    ______ ____
ROOT
ATOM      1  C1  UNL     1     157.836 153.684 163.688  0.00  0.00    +0.000 C 
ATOM      2  C2  UNL     1     159.254 154.249 163.952  0.00  0.00    +0.000 C 
ATOM      3  N1  UNL     1     159.204 155.670 163.758  0.00  0.00    +0.000 N 
ATOM      4  C3  UNL     1     158.905 156.140 162.437  0.00  0.00    +0.000 C 
ATOM      5  C4  UNL     1     158.111 155.053 161.744  0.00  0.00    +0.000 C 
ATOM      6  N2  UNL     1     157.175 154.499 162.685  0.00  0.00    +0.000 NA
ATOM      7  C5  UNL     1     159.424 156.611 164.788  0.00  0.00    +0.000 A 
ATOM      8  N3  UNL     1     158.455 157.428 165.245  0.00  0.00    +0.000 NA
ATOM      9  N4  UNL     1     158.635 158.299 166.213  0.00  0.00    +0.000 N 
ATOM     10  C6  UNL     1     157.772 159.193 166.790  0.00  0.00    +0.000 A 
ATOM     11  N5  UNL     1     158.510 159.824 167.733  0.00  0.00    +0.000 NA
ATOM     12  N6  UNL     1     159.736 159.345 167.725  0.00  0.00    +0.000 NA
ATOM     13  C7  UNL     1     159.844 158.393 166.788  0.00  0.00    +0.000 A 
ATOM     14  C8  UNL     1     160.881 157.591 166.372  0.00  0.00    +0.000 A 
ATOM     15  C9  UNL     1     162.139 157.659 166.935  0.00  0.00    +0.000 A 
ATOM     16  C10 UNL     1     163.170 156.853 166.506  0.00  0.00    +0.000 A 
ATOM     17  C11 UNL     1     162.946 155.952 165.489  0.00  0.00    +0.000 A 
ATOM     18  C12 UNL     1     161.688 155.853 164.895  0.00  0.00    +0.000 A 
ATOM     19  C13 UNL     1     160.675 156.680 165.353  0.00  0.00    +0.000 A 
ATOM     20  H9  UNL     1     156.484 153.900 162.205  0.00  0.00    +0.000 HD
ENDROOT
BRANCH  10  21
ATOM     21  C14 UNL     1     156.370 159.419 166.471  0.00  0.00    +0.000 A 
ATOM     22  C15 UNL     1     155.947 160.367 165.573  0.00  0.00    +0.000 A 
ATOM     23  C16 UNL     1     154.599 160.557 165.291  0.00  0.00    +0.000 A 
ATOM     24  C17 UNL     1     153.657 159.780 165.921  0.00  0.00    +0.000 A 
ATOM     25  C18 UNL     1     154.068 158.832 166.819  0.00  0.00    +0.000 A 
ATOM     26  C19 UNL     1     155.423 158.647 167.097  0.00  0.00    +0.000 A 
ENDBRANCH  10  21
TORSDOF 1
ENDMDL
MODEL 9
REMARK VINA RESULT:      -5.9      4.688      7.932
REMARK  Name = ./3D_structures\o73_MMV1581551_3D.pdb
REMARK  1 active torsions:
REMARK  status: ('A' for Active; 'I' for Inactive)
REMARK    1  A    between atoms: C6_10  and  C14_20
REMARK                            x       y       z     vdW  Elec       q    Type
REMARK                         _______ _______ _______ _____ _____    ______ ____
ROOT
ATOM      1  C1  UNL     1     155.711 158.429 165.581  0.00  0.00    +0.000 C 
ATOM      2  C2  UNL     1     157.208 158.562 165.955  0.00  0.00    +0.000 C 
ATOM      3  N1  UNL     1     157.679 157.264 166.348  0.00  0.00    +0.000 N 
ATOM      4  C3  UNL     1     157.098 156.686 167.524  0.00  0.00    +0.000 C 
ATOM      5  C4  UNL     1     155.720 157.291 167.686  0.00  0.00    +0.000 C 
ATOM      6  N2  UNL     1     155.106 157.387 166.389  0.00  0.00    +0.000 NA
ATOM      7  C5  UNL     1     158.665 156.540 165.642  0.00  0.00    +0.000 A 
ATOM      8  N3  UNL     1     158.398 155.385 165.001  0.00  0.00    +0.000 NA
ATOM      9  N4  UNL     1     159.297 154.704 164.326  0.00  0.00    +0.000 N 
ATOM     10  C6  UNL     1     159.197 153.530 163.627  0.00  0.00    +0.000 A 
ATOM     11  N5  UNL     1     160.442 153.312 163.141  0.00  0.00    +0.000 NA
ATOM     12  N6  UNL     1     161.239 154.288 163.521  0.00  0.00    +0.000 NA
ATOM     13  C7  UNL     1     160.553 155.170 164.261  0.00  0.00    +0.000 A 
ATOM     14  C8  UNL     1     160.899 156.343 164.892  0.00  0.00    +0.000 A 
ATOM     15  C9  UNL     1     162.180 156.853 164.852  0.00  0.00    +0.000 A 
ATOM     16  C10 UNL     1     162.513 158.027 165.491  0.00  0.00    +0.000 A 
ATOM     17  C11 UNL     1     161.546 158.714 166.190  0.00  0.00    +0.000 A 
ATOM     18  C12 UNL     1     160.240 158.230 166.254  0.00  0.00    +0.000 A 
ATOM     19  C13 UNL     1     159.942 157.047 165.598  0.00  0.00    +0.000 A 
ATOM     20  H9  UNL     1     154.100 157.605 166.475  0.00  0.00    +0.000 HD
ENDROOT
BRANCH  10  21
ATOM     21  C14 UNL     1     158.019 152.696 163.440  0.00  0.00    +0.000 A 
ATOM     22  C15 UNL     1     157.619 151.746 164.345  0.00  0.00    +0.000 A 
ATOM     23  C16 UNL     1     156.488 150.966 164.135  0.00  0.00    +0.000 A 
ATOM     24  C17 UNL     1     155.742 151.143 162.994  0.00  0.00    +0.000 A 
ATOM     25  C18 UNL     1     156.133 152.088 162.083  0.00  0.00    +0.000 A 
ATOM     26  C19 UNL     1     157.270 152.867 162.302  0.00  0.00    +0.000 A 
ENDBRANCH  10  21
TORSDOF 1
ENDMDL
