MODEL 1
REMARK VINA RESULT:      -8.0      0.000      0.000
REMARK  Name = ./3D_structures\o74_MMV1580853_3D.pdb
REMARK  7 active torsions:
REMARK  status: ('A' for Active; 'I' for Inactive)
REMARK    1  A    between atoms: C1_2  and  C11_15
REMARK    2  A    between atoms: N1_3  and  C2_4
REMARK    3  A    between atoms: C6_8  and  C8_10
REMARK    4  A    between atoms: C14_18  and  C17_21
REMARK    5  A    between atoms: C20_24  and  C23_27
REMARK    6  A    between atoms: N4_29  and  C24_30
REMARK    7  A    between atoms: C28_34  and  C30_36
REMARK                            x       y       z     vdW  Elec       q    Type
REMARK                         _______ _______ _______ _____ _____    ______ ____
ROOT
ATOM      1  C11 UNL     1     156.758 157.435 165.527  0.00  0.00    +0.000 A 
ATOM      2  C12 UNL     1     156.706 158.691 164.965  0.00  0.00    +0.000 A 
ATOM      3  C13 UNL     1     155.630 159.542 165.240  0.00  0.00    +0.000 A 
ATOM      4  C14 UNL     1     154.596 159.161 166.070  0.00  0.00    +0.000 A 
ATOM      5  C15 UNL     1     154.646 157.911 166.631  0.00  0.00    +0.000 A 
ATOM      6  C16 UNL     1     155.710 157.074 166.357  0.00  0.00    +0.000 A 
ENDROOT
BRANCH   4   7
ATOM      7  C17 UNL     1     153.498 160.083 166.325  0.00  0.00    +0.000 A 
ATOM      8  C18 UNL     1     152.985 160.242 167.599  0.00  0.00    +0.000 A 
ATOM      9  C19 UNL     1     151.944 161.123 167.851  0.00  0.00    +0.000 A 
ATOM     10  C20 UNL     1     151.375 161.876 166.846  0.00  0.00    +0.000 A 
ATOM     11  C21 UNL     1     151.871 161.730 165.577  0.00  0.00    +0.000 A 
ATOM     12  C22 UNL     1     152.926 160.838 165.326  0.00  0.00    +0.000 A 
BRANCH  10  13
ATOM     13  C23 UNL     1     150.259 162.804 167.155  0.00  0.00    +0.000 C 
ATOM     14  O2  UNL     1     150.334 163.999 166.774  0.00  0.00    +0.000 OA
ATOM     15  N4  UNL     1     149.106 162.397 167.865  0.00  0.00    +0.000 N 
ATOM     16  H19 UNL     1     149.093 161.371 168.159  0.00  0.00    +0.000 HD
BRANCH  15  17
ATOM     17  C24 UNL     1     147.994 163.174 168.221  0.00  0.00    +0.000 A 
ATOM     18  C25 UNL     1     148.028 163.832 169.458  0.00  0.00    +0.000 A 
ATOM     19  C26 UNL     1     146.995 164.628 169.907  0.00  0.00    +0.000 A 
ATOM     20  C27 UNL     1     145.869 164.811 169.143  0.00  0.00    +0.000 A 
ATOM     21  C28 UNL     1     145.820 164.173 167.929  0.00  0.00    +0.000 A 
ATOM     22  C29 UNL     1     146.877 163.363 167.476  0.00  0.00    +0.000 A 
BRANCH  21  23
ATOM     23  C30 UNL     1     144.638 164.339 167.088  0.00  0.00    +0.000 C 
ATOM     24  N5  UNL     1     143.661 163.525 167.039  0.00  0.00    +0.000 NA
ATOM     25  C31 UNL     1     142.648 163.949 166.127  0.00  0.00    +0.000 C 
ATOM     26  C32 UNL     1     143.247 165.140 165.445  0.00  0.00    +0.000 C 
ATOM     27  N6  UNL     1     144.432 165.446 166.213  0.00  0.00    +0.000 N 
ATOM     28  H28 UNL     1     144.983 166.320 166.102  0.00  0.00    +0.000 HD
ENDBRANCH  21  23
ENDBRANCH  15  17
ENDBRANCH  10  13
ENDBRANCH   4   7
BRANCH   1  30
ATOM     29  O1  UNL     1     158.886 156.609 165.971  0.00  0.00    +0.000 OA
ATOM     30  C1  UNL     1     157.859 156.491 165.270  0.00  0.00    +0.000 C 
ATOM     31  N1  UNL     1     157.815 155.489 164.301  0.00  0.00    +0.000 N 
ATOM     32  H1  UNL     1     156.903 155.449 163.743  0.00  0.00    +0.000 HD
BRANCH  31  33
ATOM     33  C2  UNL     1     158.808 154.536 163.978  0.00  0.00    +0.000 A 
ATOM     34  C3  UNL     1     159.958 154.942 163.301  0.00  0.00    +0.000 A 
ATOM     35  C4  UNL     1     160.978 154.118 162.928  0.00  0.00    +0.000 A 
ATOM     36  C5  UNL     1     160.873 152.784 163.237  0.00  0.00    +0.000 A 
ATOM     37  C6  UNL     1     159.773 152.302 163.902  0.00  0.00    +0.000 A 
ATOM     38  C7  UNL     1     158.744 153.195 164.267  0.00  0.00    +0.000 A 
BRANCH  37  39
ATOM     39  C8  UNL     1     159.632 150.887 164.245  0.00  0.00    +0.000 C 
ATOM     40  N2  UNL     1     160.484 150.213 164.930  0.00  0.00    +0.000 NA
ATOM     41  C9  UNL     1     160.074 148.841 165.108  0.00  0.00    +0.000 C 
ATOM     42  C10 UNL     1     158.884 148.676 164.213  0.00  0.00    +0.000 C 
ATOM     43  N3  UNL     1     158.543 150.049 163.880  0.00  0.00    +0.000 N 
ATOM     44  H10 UNL     1     157.653 150.375 163.445  0.00  0.00    +0.000 HD
ENDBRANCH  37  39
ENDBRANCH  31  33
ENDBRANCH   1  30
TORSDOF 7
ENDMDL
MODEL 2
REMARK VINA RESULT:      -8.0      0.655     15.399
REMARK  Name = ./3D_structures\o74_MMV1580853_3D.pdb
REMARK  7 active torsions:
REMARK  status: ('A' for Active; 'I' for Inactive)
REMARK    1  A    between atoms: C1_2  and  C11_15
REMARK    2  A    between atoms: N1_3  and  C2_4
REMARK    3  A    between atoms: C6_8  and  C8_10
REMARK    4  A    between atoms: C14_18  and  C17_21
REMARK    5  A    between atoms: C20_24  and  C23_27
REMARK    6  A    between atoms: N4_29  and  C24_30
REMARK    7  A    between atoms: C28_34  and  C30_36
REMARK                            x       y       z     vdW  Elec       q    Type
REMARK                         _______ _______ _______ _____ _____    ______ ____
ROOT
ATOM      1  C11 UNL     1     151.616 162.043 166.931  0.00  0.00    +0.000 A 
ATOM      2  C12 UNL     1     152.167 161.977 165.671  0.00  0.00    +0.000 A 
ATOM      3  C13 UNL     1     153.179 161.051 165.394  0.00  0.00    +0.000 A 
ATOM      4  C14 UNL     1     153.654 160.184 166.355  0.00  0.00    +0.000 A 
ATOM      5  C15 UNL     1     153.107 160.248 167.610  0.00  0.00    +0.000 A 
ATOM      6  C16 UNL     1     152.107 161.164 167.880  0.00  0.00    +0.000 A 
ENDROOT
BRANCH   4   7
ATOM      7  C17 UNL     1     154.709 159.239 166.017  0.00  0.00    +0.000 A 
ATOM      8  C18 UNL     1     154.659 157.929 166.459  0.00  0.00    +0.000 A 
ATOM      9  C19 UNL     1     155.655 157.021 166.136  0.00  0.00    +0.000 A 
ATOM     10  C20 UNL     1     156.738 157.381 165.361  0.00  0.00    +0.000 A 
ATOM     11  C21 UNL     1     156.804 158.675 164.916  0.00  0.00    +0.000 A 
ATOM     12  C22 UNL     1     155.793 159.592 165.244  0.00  0.00    +0.000 A 
BRANCH  10  13
ATOM     13  C23 UNL     1     157.787 156.381 165.041  0.00  0.00    +0.000 C 
ATOM     14  O2  UNL     1     158.891 156.440 165.639  0.00  0.00    +0.000 OA
ATOM     15  N4  UNL     1     157.595 155.358 164.085  0.00  0.00    +0.000 N 
ATOM     16  H19 UNL     1     156.638 155.352 163.612  0.00  0.00    +0.000 HD
BRANCH  15  17
ATOM     17  C24 UNL     1     158.503 154.363 163.694  0.00  0.00    +0.000 A 
ATOM     18  C25 UNL     1     159.492 154.714 162.763  0.00  0.00    +0.000 A 
ATOM     19  C26 UNL     1     160.440 153.820 162.313  0.00  0.00    +0.000 A 
ATOM     20  C27 UNL     1     160.456 152.525 162.768  0.00  0.00    +0.000 A 
ATOM     21  C28 UNL     1     159.494 152.166 163.679  0.00  0.00    +0.000 A 
ATOM     22  C29 UNL     1     158.529 153.082 164.136  0.00  0.00    +0.000 A 
BRANCH  21  23
ATOM     23  C30 UNL     1     159.473 150.797 164.186  0.00  0.00    +0.000 C 
ATOM     24  N5  UNL     1     160.374 150.282 164.923  0.00  0.00    +0.000 NA
ATOM     25  C31 UNL     1     160.086 148.926 165.265  0.00  0.00    +0.000 C 
ATOM     26  C32 UNL     1     158.877 148.593 164.445  0.00  0.00    +0.000 C 
ATOM     27  N6  UNL     1     158.431 149.863 163.917  0.00  0.00    +0.000 N 
ATOM     28  H28 UNL     1     157.516 150.002 163.443  0.00  0.00    +0.000 HD
ENDBRANCH  21  23
ENDBRANCH  15  17
ENDBRANCH  10  13
ENDBRANCH   4   7
BRANCH   1  30
ATOM     29  O1  UNL     1     150.754 164.202 167.005  0.00  0.00    +0.000 OA
ATOM     30  C1  UNL     1     150.555 163.001 167.287  0.00  0.00    +0.000 C 
ATOM     31  N1  UNL     1     149.359 162.644 167.909  0.00  0.00    +0.000 N 
ATOM     32  H1  UNL     1     149.260 161.598 168.115  0.00  0.00    +0.000 HD
BRANCH  31  33
ATOM     33  C2  UNL     1     148.282 163.478 168.287  0.00  0.00    +0.000 A 
ATOM     34  C3  UNL     1     148.050 163.730 169.639  0.00  0.00    +0.000 A 
ATOM     35  C4  UNL     1     147.041 164.508 170.127  0.00  0.00    +0.000 A 
ATOM     36  C5  UNL     1     146.184 165.091 169.226  0.00  0.00    +0.000 A 
ATOM     37  C6  UNL     1     146.344 164.893 167.877  0.00  0.00    +0.000 A 
ATOM     38  C7  UNL     1     147.403 164.080 167.422  0.00  0.00    +0.000 A 
BRANCH  37  39
ATOM     39  C8  UNL     1     145.448 165.499 166.892  0.00  0.00    +0.000 C 
ATOM     40  N2  UNL     1     145.651 166.629 166.318  0.00  0.00    +0.000 NA
ATOM     41  C9  UNL     1     144.595 166.967 165.394  0.00  0.00    +0.000 C 
ATOM     42  C10 UNL     1     143.532 165.940 165.634  0.00  0.00    +0.000 C 
ATOM     43  N3  UNL     1     144.228 164.938 166.424  0.00  0.00    +0.000 N 
ATOM     44  H10 UNL     1     143.898 163.968 166.620  0.00  0.00    +0.000 HD
ENDBRANCH  37  39
ENDBRANCH  31  33
ENDBRANCH   1  30
TORSDOF 7
ENDMDL
MODEL 3
REMARK VINA RESULT:      -7.5      1.399     15.454
REMARK  Name = ./3D_structures\o74_MMV1580853_3D.pdb
REMARK  7 active torsions:
REMARK  status: ('A' for Active; 'I' for Inactive)
REMARK    1  A    between atoms: C1_2  and  C11_15
REMARK    2  A    between atoms: N1_3  and  C2_4
REMARK    3  A    between atoms: C6_8  and  C8_10
REMARK    4  A    between atoms: C14_18  and  C17_21
REMARK    5  A    between atoms: C20_24  and  C23_27
REMARK    6  A    between atoms: N4_29  and  C24_30
REMARK    7  A    between atoms: C28_34  and  C30_36
REMARK                            x       y       z     vdW  Elec       q    Type
REMARK                         _______ _______ _______ _____ _____    ______ ____
ROOT
ATOM      1  C11 UNL     1     151.350 161.935 167.013  0.00  0.00    +0.000 A 
ATOM      2  C12 UNL     1     152.149 161.430 168.014  0.00  0.00    +0.000 A 
ATOM      3  C13 UNL     1     153.199 160.558 167.704  0.00  0.00    +0.000 A 
ATOM      4  C14 UNL     1     153.469 160.178 166.407  0.00  0.00    +0.000 A 
ATOM      5  C15 UNL     1     152.675 160.680 165.409  0.00  0.00    +0.000 A 
ATOM      6  C16 UNL     1     151.639 161.541 165.718  0.00  0.00    +0.000 A 
ENDROOT
BRANCH   4   7
ATOM      7  C17 UNL     1     154.574 159.268 166.137  0.00  0.00    +0.000 A 
ATOM      8  C18 UNL     1     154.619 158.013 166.717  0.00  0.00    +0.000 A 
ATOM      9  C19 UNL     1     155.663 157.138 166.459  0.00  0.00    +0.000 A 
ATOM     10  C20 UNL     1     156.700 157.479 165.616  0.00  0.00    +0.000 A 
ATOM     11  C21 UNL     1     156.672 158.718 165.035  0.00  0.00    +0.000 A 
ATOM     12  C22 UNL     1     155.612 159.602 165.297  0.00  0.00    +0.000 A 
BRANCH  10  13
ATOM     13  C23 UNL     1     157.802 156.516 165.370  0.00  0.00    +0.000 C 
ATOM     14  O2  UNL     1     158.935 156.743 165.866  0.00  0.00    +0.000 OA
ATOM     15  N4  UNL     1     157.631 155.346 164.595  0.00  0.00    +0.000 N 
ATOM     16  H19 UNL     1     156.649 155.200 164.204  0.00  0.00    +0.000 HD
BRANCH  15  17
ATOM     17  C24 UNL     1     158.589 154.368 164.289  0.00  0.00    +0.000 A 
ATOM     18  C25 UNL     1     158.141 153.051 164.112  0.00  0.00    +0.000 A 
ATOM     19  C26 UNL     1     158.991 152.011 163.802  0.00  0.00    +0.000 A 
ATOM     20  C27 UNL     1     160.339 152.228 163.649  0.00  0.00    +0.000 A 
ATOM     21  C28 UNL     1     160.793 153.512 163.820  0.00  0.00    +0.000 A 
ATOM     22  C29 UNL     1     159.921 154.570 164.136  0.00  0.00    +0.000 A 
BRANCH  21  23
ATOM     23  C30 UNL     1     162.219 153.785 163.670  0.00  0.00    +0.000 C 
ATOM     24  N5  UNL     1     163.132 153.314 164.422  0.00  0.00    +0.000 NA
ATOM     25  C31 UNL     1     164.433 153.753 164.034  0.00  0.00    +0.000 C 
ATOM     26  C32 UNL     1     164.172 154.766 162.962  0.00  0.00    +0.000 C 
ATOM     27  N6  UNL     1     162.769 154.618 162.652  0.00  0.00    +0.000 N 
ATOM     28  H28 UNL     1     162.309 155.060 161.831  0.00  0.00    +0.000 HD
ENDBRANCH  21  23
ENDBRANCH  15  17
ENDBRANCH  10  13
ENDBRANCH   4   7
BRANCH   1  30
ATOM     29  O1  UNL     1     150.249 163.960 166.706  0.00  0.00    +0.000 OA
ATOM     30  C1  UNL     1     150.225 162.849 167.276  0.00  0.00    +0.000 C 
ATOM     31  N1  UNL     1     149.152 162.542 168.112  0.00  0.00    +0.000 N 
ATOM     32  H1  UNL     1     149.201 161.572 168.562  0.00  0.00    +0.000 HD
BRANCH  31  33
ATOM     33  C2  UNL     1     148.028 163.340 168.427  0.00  0.00    +0.000 A 
ATOM     34  C3  UNL     1     148.057 164.152 169.560  0.00  0.00    +0.000 A 
ATOM     35  C4  UNL     1     147.035 164.957 169.972  0.00  0.00    +0.000 A 
ATOM     36  C5  UNL     1     145.886 164.974 169.219  0.00  0.00    +0.000 A 
ATOM     37  C6  UNL     1     145.776 164.203 168.089  0.00  0.00    +0.000 A 
ATOM     38  C7  UNL     1     146.862 163.387 167.704  0.00  0.00    +0.000 A 
BRANCH  37  39
ATOM     39  C8  UNL     1     144.567 164.199 167.267  0.00  0.00    +0.000 C 
ATOM     40  N2  UNL     1     143.642 163.310 167.332  0.00  0.00    +0.000 NA
ATOM     41  C9  UNL     1     142.572 163.571 166.399  0.00  0.00    +0.000 C 
ATOM     42  C10 UNL     1     143.076 164.689 165.539  0.00  0.00    +0.000 C 
ATOM     43  N3  UNL     1     144.231 165.167 166.281  0.00  0.00    +0.000 N 
ATOM     44  H10 UNL     1     144.736 166.066 166.124  0.00  0.00    +0.000 HD
ENDBRANCH  37  39
ENDBRANCH  31  33
ENDBRANCH   1  30
TORSDOF 7
ENDMDL
MODEL 4
REMARK VINA RESULT:      -7.5      2.557     15.578
REMARK  Name = ./3D_structures\o74_MMV1580853_3D.pdb
REMARK  7 active torsions:
REMARK  status: ('A' for Active; 'I' for Inactive)
REMARK    1  A    between atoms: C1_2  and  C11_15
REMARK    2  A    between atoms: N1_3  and  C2_4
REMARK    3  A    between atoms: C6_8  and  C8_10
REMARK    4  A    between atoms: C14_18  and  C17_21
REMARK    5  A    between atoms: C20_24  and  C23_27
REMARK    6  A    between atoms: N4_29  and  C24_30
REMARK    7  A    between atoms: C28_34  and  C30_36
REMARK                            x       y       z     vdW  Elec       q    Type
REMARK                         _______ _______ _______ _____ _____    ______ ____
ROOT
ATOM      1  C11 UNL     1     151.032 161.156 167.578  0.00  0.00    +0.000 A 
ATOM      2  C12 UNL     1     151.828 160.371 168.380  0.00  0.00    +0.000 A 
ATOM      3  C13 UNL     1     152.983 159.776 167.859  0.00  0.00    +0.000 A 
ATOM      4  C14 UNL     1     153.361 159.952 166.545  0.00  0.00    +0.000 A 
ATOM      5  C15 UNL     1     152.569 160.733 165.745  0.00  0.00    +0.000 A 
ATOM      6  C16 UNL     1     151.429 161.319 166.262  0.00  0.00    +0.000 A 
ENDROOT
BRANCH   4   7
ATOM      7  C17 UNL     1     154.572 159.311 166.051  0.00  0.00    +0.000 A 
ATOM      8  C18 UNL     1     155.480 160.011 165.277  0.00  0.00    +0.000 A 
ATOM      9  C19 UNL     1     156.639 159.411 164.808  0.00  0.00    +0.000 A 
ATOM     10  C20 UNL     1     156.936 158.094 165.090  0.00  0.00    +0.000 A 
ATOM     11  C21 UNL     1     156.047 157.387 165.855  0.00  0.00    +0.000 A 
ATOM     12  C22 UNL     1     154.875 157.997 166.329  0.00  0.00    +0.000 A 
BRANCH  10  13
ATOM     13  C23 UNL     1     158.184 157.486 164.566  0.00  0.00    +0.000 C 
ATOM     14  O2  UNL     1     158.512 157.698 163.371  0.00  0.00    +0.000 OA
ATOM     15  N4  UNL     1     159.026 156.673 165.358  0.00  0.00    +0.000 N 
ATOM     16  H19 UNL     1     158.703 156.532 166.366  0.00  0.00    +0.000 HD
BRANCH  15  17
ATOM     17  C24 UNL     1     160.221 156.043 164.980  0.00  0.00    +0.000 A 
ATOM     18  C25 UNL     1     160.124 154.836 164.273  0.00  0.00    +0.000 A 
ATOM     19  C26 UNL     1     161.231 154.134 163.845  0.00  0.00    +0.000 A 
ATOM     20  C27 UNL     1     162.498 154.599 164.098  0.00  0.00    +0.000 A 
ATOM     21  C28 UNL     1     162.609 155.779 164.790  0.00  0.00    +0.000 A 
ATOM     22  C29 UNL     1     161.477 156.492 165.225  0.00  0.00    +0.000 A 
BRANCH  21  23
ATOM     23  C30 UNL     1     163.939 156.306 165.084  0.00  0.00    +0.000 C 
ATOM     24  N5  UNL     1     164.177 157.279 165.870  0.00  0.00    +0.000 NA
ATOM     25  C31 UNL     1     165.571 157.572 165.961  0.00  0.00    +0.000 C 
ATOM     26  C32 UNL     1     166.197 156.694 164.923  0.00  0.00    +0.000 C 
ATOM     27  N6  UNL     1     165.142 155.791 164.522  0.00  0.00    +0.000 N 
ATOM     28  H28 UNL     1     165.297 154.946 163.935  0.00  0.00    +0.000 HD
ENDBRANCH  21  23
ENDBRANCH  15  17
ENDBRANCH  10  13
ENDBRANCH   4   7
BRANCH   1  30
ATOM     29  O1  UNL     1     149.225 161.269 169.038  0.00  0.00    +0.000 OA
ATOM     30  C1  UNL     1     149.800 161.801 168.065  0.00  0.00    +0.000 C 
ATOM     31  N1  UNL     1     149.253 162.956 167.507  0.00  0.00    +0.000 N 
ATOM     32  H1  UNL     1     149.803 163.354 166.680  0.00  0.00    +0.000 HD
BRANCH  31  33
ATOM     33  C2  UNL     1     148.086 163.653 167.898  0.00  0.00    +0.000 A 
ATOM     34  C3  UNL     1     148.056 164.309 169.129  0.00  0.00    +0.000 A 
ATOM     35  C4  UNL     1     146.990 165.004 169.618  0.00  0.00    +0.000 A 
ATOM     36  C5  UNL     1     145.854 165.067 168.849  0.00  0.00    +0.000 A 
ATOM     37  C6  UNL     1     145.801 164.447 167.625  0.00  0.00    +0.000 A 
ATOM     38  C7  UNL     1     146.931 163.741 167.162  0.00  0.00    +0.000 A 
BRANCH  37  39
ATOM     39  C8  UNL     1     144.607 164.496 166.782  0.00  0.00    +0.000 C 
ATOM     40  N2  UNL     1     144.263 165.499 166.059  0.00  0.00    +0.000 NA
ATOM     41  C9  UNL     1     143.038 165.254 165.336  0.00  0.00    +0.000 C 
ATOM     42  C10 UNL     1     142.512 163.969 165.897  0.00  0.00    +0.000 C 
ATOM     43  N3  UNL     1     143.653 163.452 166.634  0.00  0.00    +0.000 N 
ATOM     44  H10 UNL     1     143.763 162.480 166.997  0.00  0.00    +0.000 HD
ENDBRANCH  37  39
ENDBRANCH  31  33
ENDBRANCH   1  30
TORSDOF 7
ENDMDL
MODEL 5
REMARK VINA RESULT:      -7.4      7.438     18.147
REMARK  Name = ./3D_structures\o74_MMV1580853_3D.pdb
REMARK  7 active torsions:
REMARK  status: ('A' for Active; 'I' for Inactive)
REMARK    1  A    between atoms: C1_2  and  C11_15
REMARK    2  A    between atoms: N1_3  and  C2_4
REMARK    3  A    between atoms: C6_8  and  C8_10
REMARK    4  A    between atoms: C14_18  and  C17_21
REMARK    5  A    between atoms: C20_24  and  C23_27
REMARK    6  A    between atoms: N4_29  and  C24_30
REMARK    7  A    between atoms: C28_34  and  C30_36
REMARK                            x       y       z     vdW  Elec       q    Type
REMARK                         _______ _______ _______ _____ _____    ______ ____
ROOT
ATOM      1  C11 UNL     1     158.170 151.266 163.999  0.00  0.00    +0.000 A 
ATOM      2  C12 UNL     1     157.359 150.783 162.997  0.00  0.00    +0.000 A 
ATOM      3  C13 UNL     1     157.186 149.403 162.836  0.00  0.00    +0.000 A 
ATOM      4  C14 UNL     1     157.811 148.491 163.660  0.00  0.00    +0.000 A 
ATOM      5  C15 UNL     1     158.618 148.971 164.658  0.00  0.00    +0.000 A 
ATOM      6  C16 UNL     1     158.787 150.334 164.815  0.00  0.00    +0.000 A 
ENDROOT
BRANCH   4   7
ATOM      7  C17 UNL     1     157.599 147.066 163.451  0.00  0.00    +0.000 A 
ATOM      8  C18 UNL     1     156.497 146.607 162.750  0.00  0.00    +0.000 A 
ATOM      9  C19 UNL     1     156.292 145.252 162.541  0.00  0.00    +0.000 A 
ATOM     10  C20 UNL     1     157.172 144.304 163.020  0.00  0.00    +0.000 A 
ATOM     11  C21 UNL     1     158.267 144.742 163.716  0.00  0.00    +0.000 A 
ATOM     12  C22 UNL     1     158.473 146.115 163.926  0.00  0.00    +0.000 A 
BRANCH  10  13
ATOM     13  C23 UNL     1     156.914 142.863 162.779  0.00  0.00    +0.000 C 
ATOM     14  O2  UNL     1     157.825 142.030 163.019  0.00  0.00    +0.000 OA
ATOM     15  N4  UNL     1     155.679 142.383 162.288  0.00  0.00    +0.000 N 
ATOM     16  H19 UNL     1     154.940 143.133 162.106  0.00  0.00    +0.000 HD
BRANCH  15  17
ATOM     17  C24 UNL     1     155.316 141.055 162.016  0.00  0.00    +0.000 A 
ATOM     18  C25 UNL     1     154.455 140.418 162.920  0.00  0.00    +0.000 A 
ATOM     19  C26 UNL     1     154.027 139.118 162.751  0.00  0.00    +0.000 A 
ATOM     20  C27 UNL     1     154.436 138.381 161.667  0.00  0.00    +0.000 A 
ATOM     21  C28 UNL     1     155.280 138.992 160.773  0.00  0.00    +0.000 A 
ATOM     22  C29 UNL     1     155.713 140.318 160.950  0.00  0.00    +0.000 A 
BRANCH  21  23
ATOM     23  C30 UNL     1     155.740 138.241 159.607  0.00  0.00    +0.000 C 
ATOM     24  N5  UNL     1     156.212 138.765 158.547  0.00  0.00    +0.000 NA
ATOM     25  C31 UNL     1     156.580 137.784 157.577  0.00  0.00    +0.000 C 
ATOM     26  C32 UNL     1     156.084 136.495 158.155  0.00  0.00    +0.000 C 
ATOM     27  N6  UNL     1     155.719 136.819 159.515  0.00  0.00    +0.000 N 
ATOM     28  H28 UNL     1     155.494 136.107 160.239  0.00  0.00    +0.000 HD
ENDBRANCH  21  23
ENDBRANCH  15  17
ENDBRANCH  10  13
ENDBRANCH   4   7
BRANCH   1  30
ATOM     29  O1  UNL     1     159.537 153.050 164.597  0.00  0.00    +0.000 OA
ATOM     30  C1  UNL     1     158.399 152.706 164.214  0.00  0.00    +0.000 C 
ATOM     31  N1  UNL     1     157.428 153.687 164.014  0.00  0.00    +0.000 N 
ATOM     32  H1  UNL     1     156.480 153.315 163.684  0.00  0.00    +0.000 HD
BRANCH  31  33
ATOM     33  C2  UNL     1     157.545 155.086 164.186  0.00  0.00    +0.000 A 
ATOM     34  C3  UNL     1     157.966 155.878 163.119  0.00  0.00    +0.000 A 
ATOM     35  C4  UNL     1     158.125 157.232 163.165  0.00  0.00    +0.000 A 
ATOM     36  C5  UNL     1     157.853 157.872 164.349  0.00  0.00    +0.000 A 
ATOM     37  C6  UNL     1     157.433 157.165 165.448  0.00  0.00    +0.000 A 
ATOM     38  C7  UNL     1     157.284 155.765 165.350  0.00  0.00    +0.000 A 
BRANCH  37  39
ATOM     39  C8  UNL     1     157.136 157.817 166.723  0.00  0.00    +0.000 C 
ATOM     40  N2  UNL     1     156.456 158.898 166.849  0.00  0.00    +0.000 NA
ATOM     41  C9  UNL     1     156.327 159.302 168.229  0.00  0.00    +0.000 C 
ATOM     42  C10 UNL     1     157.250 158.394 168.982  0.00  0.00    +0.000 C 
ATOM     43  N3  UNL     1     157.549 157.360 168.005  0.00  0.00    +0.000 N 
ATOM     44  H10 UNL     1     157.991 156.436 168.200  0.00  0.00    +0.000 HD
ENDBRANCH  37  39
ENDBRANCH  31  33
ENDBRANCH   1  30
TORSDOF 7
ENDMDL
MODEL 6
REMARK VINA RESULT:      -7.4      1.649      2.721
REMARK  Name = ./3D_structures\o74_MMV1580853_3D.pdb
REMARK  7 active torsions:
REMARK  status: ('A' for Active; 'I' for Inactive)
REMARK    1  A    between atoms: C1_2  and  C11_15
REMARK    2  A    between atoms: N1_3  and  C2_4
REMARK    3  A    between atoms: C6_8  and  C8_10
REMARK    4  A    between atoms: C14_18  and  C17_21
REMARK    5  A    between atoms: C20_24  and  C23_27
REMARK    6  A    between atoms: N4_29  and  C24_30
REMARK    7  A    between atoms: C28_34  and  C30_36
REMARK                            x       y       z     vdW  Elec       q    Type
REMARK                         _______ _______ _______ _____ _____    ______ ____
ROOT
ATOM      1  C11 UNL     1     156.864 157.221 165.321  0.00  0.00    +0.000 A 
ATOM      2  C12 UNL     1     155.789 156.893 166.117  0.00  0.00    +0.000 A 
ATOM      3  C13 UNL     1     154.813 157.851 166.411  0.00  0.00    +0.000 A 
ATOM      4  C14 UNL     1     154.888 159.139 165.924  0.00  0.00    +0.000 A 
ATOM      5  C15 UNL     1     155.957 159.468 165.132  0.00  0.00    +0.000 A 
ATOM      6  C16 UNL     1     156.920 158.519 164.843  0.00  0.00    +0.000 A 
ENDROOT
BRANCH   4   7
ATOM      7  C17 UNL     1     153.846 160.100 166.259  0.00  0.00    +0.000 A 
ATOM      8  C18 UNL     1     153.415 160.254 167.565  0.00  0.00    +0.000 A 
ATOM      9  C19 UNL     1     152.428 161.171 167.893  0.00  0.00    +0.000 A 
ATOM     10  C20 UNL     1     151.834 161.967 166.937  0.00  0.00    +0.000 A 
ATOM     11  C21 UNL     1     152.249 161.827 165.639  0.00  0.00    +0.000 A 
ATOM     12  C22 UNL     1     153.249 160.898 165.310  0.00  0.00    +0.000 A 
BRANCH  10  13
ATOM     13  C23 UNL     1     150.778 162.933 167.328  0.00  0.00    +0.000 C 
ATOM     14  O2  UNL     1     151.037 164.163 167.312  0.00  0.00    +0.000 OA
ATOM     15  N4  UNL     1     149.482 162.526 167.721  0.00  0.00    +0.000 N 
ATOM     16  H19 UNL     1     149.316 161.472 167.712  0.00  0.00    +0.000 HD
BRANCH  15  17
ATOM     17  C24 UNL     1     148.407 163.336 168.115  0.00  0.00    +0.000 A 
ATOM     18  C25 UNL     1     148.142 163.444 169.487  0.00  0.00    +0.000 A 
ATOM     19  C26 UNL     1     147.115 164.217 169.988  0.00  0.00    +0.000 A 
ATOM     20  C27 UNL     1     146.296 164.926 169.145  0.00  0.00    +0.000 A 
ATOM     21  C28 UNL     1     146.543 164.830 167.798  0.00  0.00    +0.000 A 
ATOM     22  C29 UNL     1     147.591 164.041 167.293  0.00  0.00    +0.000 A 
BRANCH  21  23
ATOM     23  C30 UNL     1     145.692 165.567 166.867  0.00  0.00    +0.000 C 
ATOM     24  N5  UNL     1     145.930 166.743 166.442  0.00  0.00    +0.000 NA
ATOM     25  C31 UNL     1     144.924 167.206 165.542  0.00  0.00    +0.000 C 
ATOM     26  C32 UNL     1     143.867 166.147 165.598  0.00  0.00    +0.000 C 
ATOM     27  N6  UNL     1     144.483 165.053 166.315  0.00  0.00    +0.000 N 
ATOM     28  H28 UNL     1     144.072 164.100 166.379  0.00  0.00    +0.000 HD
ENDBRANCH  21  23
ENDBRANCH  15  17
ENDBRANCH  10  13
ENDBRANCH   4   7
BRANCH   1  30
ATOM     29  O1  UNL     1     159.092 156.555 165.328  0.00  0.00    +0.000 OA
ATOM     30  C1  UNL     1     157.928 156.261 164.983  0.00  0.00    +0.000 C 
ATOM     31  N1  UNL     1     157.707 155.059 164.312  0.00  0.00    +0.000 N 
ATOM     32  H1  UNL     1     156.685 154.875 164.052  0.00  0.00    +0.000 HD
BRANCH  31  33
ATOM     33  C2  UNL     1     158.651 154.071 163.945  0.00  0.00    +0.000 A 
ATOM     34  C3  UNL     1     158.521 152.776 164.445  0.00  0.00    +0.000 A 
ATOM     35  C4  UNL     1     159.370 151.744 164.171  0.00  0.00    +0.000 A 
ATOM     36  C5  UNL     1     160.437 151.990 163.342  0.00  0.00    +0.000 A 
ATOM     37  C6  UNL     1     160.636 153.239 162.808  0.00  0.00    +0.000 A 
ATOM     38  C7  UNL     1     159.730 154.274 163.120  0.00  0.00    +0.000 A 
BRANCH  37  39
ATOM     39  C8  UNL     1     161.762 153.533 161.922  0.00  0.00    +0.000 C 
ATOM     40  N2  UNL     1     161.791 153.270 160.665  0.00  0.00    +0.000 NA
ATOM     41  C9  UNL     1     163.034 153.676 160.054  0.00  0.00    +0.000 C 
ATOM     42  C10 UNL     1     163.919 154.056 161.200  0.00  0.00    +0.000 C 
ATOM     43  N3  UNL     1     162.985 154.147 162.309  0.00  0.00    +0.000 N 
ATOM     44  H10 UNL     1     163.169 154.587 163.237  0.00  0.00    +0.000 HD
ENDBRANCH  37  39
ENDBRANCH  31  33
ENDBRANCH   1  30
TORSDOF 7
ENDMDL
MODEL 7
REMARK VINA RESULT:      -7.3      4.257     15.591
REMARK  Name = ./3D_structures\o74_MMV1580853_3D.pdb
REMARK  7 active torsions:
REMARK  status: ('A' for Active; 'I' for Inactive)
REMARK    1  A    between atoms: C1_2  and  C11_15
REMARK    2  A    between atoms: N1_3  and  C2_4
REMARK    3  A    between atoms: C6_8  and  C8_10
REMARK    4  A    between atoms: C14_18  and  C17_21
REMARK    5  A    between atoms: C20_24  and  C23_27
REMARK    6  A    between atoms: N4_29  and  C24_30
REMARK    7  A    between atoms: C28_34  and  C30_36
REMARK                            x       y       z     vdW  Elec       q    Type
REMARK                         _______ _______ _______ _____ _____    ______ ____
ROOT
ATOM      1  C11 UNL     1     150.985 160.894 167.594  0.00  0.00    +0.000 A 
ATOM      2  C12 UNL     1     151.546 160.347 168.725  0.00  0.00    +0.000 A 
ATOM      3  C13 UNL     1     152.889 159.952 168.725  0.00  0.00    +0.000 A 
ATOM      4  C14 UNL     1     153.687 160.094 167.610  0.00  0.00    +0.000 A 
ATOM      5  C15 UNL     1     153.131 160.639 166.482  0.00  0.00    +0.000 A 
ATOM      6  C16 UNL     1     151.804 161.028 166.486  0.00  0.00    +0.000 A 
ENDROOT
BRANCH   4   7
ATOM      7  C17 UNL     1     155.079 159.668 167.660  0.00  0.00    +0.000 A 
ATOM      8  C18 UNL     1     155.725 159.493 168.871  0.00  0.00    +0.000 A 
ATOM      9  C19 UNL     1     157.048 159.081 168.928  0.00  0.00    +0.000 A 
ATOM     10  C20 UNL     1     157.776 158.828 167.784  0.00  0.00    +0.000 A 
ATOM     11  C21 UNL     1     157.151 158.998 166.577  0.00  0.00    +0.000 A 
ATOM     12  C22 UNL     1     155.812 159.415 166.523  0.00  0.00    +0.000 A 
BRANCH  10  13
ATOM     13  C23 UNL     1     159.191 158.394 167.886  0.00  0.00    +0.000 C 
ATOM     14  O2  UNL     1     159.630 157.994 168.994  0.00  0.00    +0.000 OA
ATOM     15  N4  UNL     1     160.074 158.410 166.782  0.00  0.00    +0.000 N 
ATOM     16  H19 UNL     1     159.648 158.753 165.865  0.00  0.00    +0.000 HD
BRANCH  15  17
ATOM     17  C24 UNL     1     161.424 158.032 166.752  0.00  0.00    +0.000 A 
ATOM     18  C25 UNL     1     161.785 156.974 165.906  0.00  0.00    +0.000 A 
ATOM     19  C26 UNL     1     163.083 156.522 165.791  0.00  0.00    +0.000 A 
ATOM     20  C27 UNL     1     164.094 157.103 166.515  0.00  0.00    +0.000 A 
ATOM     21  C28 UNL     1     163.757 158.140 167.349  0.00  0.00    +0.000 A 
ATOM     22  C29 UNL     1     162.431 158.597 167.462  0.00  0.00    +0.000 A 
BRANCH  21  23
ATOM     23  C30 UNL     1     164.802 158.784 168.139  0.00  0.00    +0.000 C 
ATOM     24  N5  UNL     1     165.365 159.886 167.838  0.00  0.00    +0.000 NA
ATOM     25  C31 UNL     1     166.350 160.270 168.797  0.00  0.00    +0.000 C 
ATOM     26  C32 UNL     1     166.446 159.090 169.714  0.00  0.00    +0.000 C 
ATOM     27  N6  UNL     1     165.323 158.254 169.355  0.00  0.00    +0.000 N 
ATOM     28  H28 UNL     1     165.007 157.438 169.916  0.00  0.00    +0.000 HD
ENDBRANCH  21  23
ENDBRANCH  15  17
ENDBRANCH  10  13
ENDBRANCH   4   7
BRANCH   1  30
ATOM     29  O1  UNL     1     148.806 160.637 166.822  0.00  0.00    +0.000 OA
ATOM     30  C1  UNL     1     149.576 161.320 167.529  0.00  0.00    +0.000 C 
ATOM     31  N1  UNL     1     149.066 162.427 168.206  0.00  0.00    +0.000 N 
ATOM     32  H1  UNL     1     149.784 162.961 168.793  0.00  0.00    +0.000 HD
BRANCH  31  33
ATOM     33  C2  UNL     1     147.739 162.917 168.215  0.00  0.00    +0.000 A 
ATOM     34  C3  UNL     1     146.788 162.312 169.036  0.00  0.00    +0.000 A 
ATOM     35  C4  UNL     1     145.479 162.687 169.124  0.00  0.00    +0.000 A 
ATOM     36  C5  UNL     1     145.057 163.738 168.348  0.00  0.00    +0.000 A 
ATOM     37  C6  UNL     1     145.931 164.388 167.512  0.00  0.00    +0.000 A 
ATOM     38  C7  UNL     1     147.275 163.963 167.457  0.00  0.00    +0.000 A 
BRANCH  37  39
ATOM     39  C8  UNL     1     145.512 165.511 166.673  0.00  0.00    +0.000 C 
ATOM     40  N2  UNL     1     146.163 166.610 166.547  0.00  0.00    +0.000 NA
ATOM     41  C9  UNL     1     145.504 167.531 165.651  0.00  0.00    +0.000 C 
ATOM     42  C10 UNL     1     144.167 166.914 165.380  0.00  0.00    +0.000 C 
ATOM     43  N3  UNL     1     144.335 165.558 165.877  0.00  0.00    +0.000 N 
ATOM     44  H10 UNL     1     143.705 164.749 165.688  0.00  0.00    +0.000 HD
ENDBRANCH  37  39
ENDBRANCH  31  33
ENDBRANCH   1  30
TORSDOF 7
ENDMDL
MODEL 8
REMARK VINA RESULT:      -7.2      3.288     15.542
REMARK  Name = ./3D_structures\o74_MMV1580853_3D.pdb
REMARK  7 active torsions:
REMARK  status: ('A' for Active; 'I' for Inactive)
REMARK    1  A    between atoms: C1_2  and  C11_15
REMARK    2  A    between atoms: N1_3  and  C2_4
REMARK    3  A    between atoms: C6_8  and  C8_10
REMARK    4  A    between atoms: C14_18  and  C17_21
REMARK    5  A    between atoms: C20_24  and  C23_27
REMARK    6  A    between atoms: N4_29  and  C24_30
REMARK    7  A    between atoms: C28_34  and  C30_36
REMARK                            x       y       z     vdW  Elec       q    Type
REMARK                         _______ _______ _______ _____ _____    ______ ____
ROOT
ATOM      1  C11 UNL     1     151.099 161.156 167.131  0.00  0.00    +0.000 A 
ATOM      2  C12 UNL     1     151.806 160.390 168.030  0.00  0.00    +0.000 A 
ATOM      3  C13 UNL     1     153.012 159.790 167.648  0.00  0.00    +0.000 A 
ATOM      4  C14 UNL     1     153.529 159.941 166.379  0.00  0.00    +0.000 A 
ATOM      5  C15 UNL     1     152.826 160.703 165.482  0.00  0.00    +0.000 A 
ATOM      6  C16 UNL     1     151.636 161.294 165.862  0.00  0.00    +0.000 A 
ENDROOT
BRANCH   4   7
ATOM      7  C17 UNL     1     154.788 159.296 166.031  0.00  0.00    +0.000 A 
ATOM      8  C18 UNL     1     154.960 157.935 166.205  0.00  0.00    +0.000 A 
ATOM      9  C19 UNL     1     156.153 157.312 165.870  0.00  0.00    +0.000 A 
ATOM     10  C20 UNL     1     157.217 158.020 165.350  0.00  0.00    +0.000 A 
ATOM     11  C21 UNL     1     157.062 159.369 165.172  0.00  0.00    +0.000 A 
ATOM     12  C22 UNL     1     155.853 159.997 165.511  0.00  0.00    +0.000 A 
BRANCH  10  13
ATOM     13  C23 UNL     1     158.479 157.318 165.008  0.00  0.00    +0.000 C 
ATOM     14  O2  UNL     1     158.428 156.123 164.620  0.00  0.00    +0.000 OA
ATOM     15  N4  UNL     1     159.745 157.940 165.102  0.00  0.00    +0.000 N 
ATOM     16  H19 UNL     1     159.728 158.955 165.432  0.00  0.00    +0.000 HD
BRANCH  15  17
ATOM     17  C24 UNL     1     161.001 157.386 164.814  0.00  0.00    +0.000 A 
ATOM     18  C25 UNL     1     161.770 156.922 165.890  0.00  0.00    +0.000 A 
ATOM     19  C26 UNL     1     163.015 156.353 165.725  0.00  0.00    +0.000 A 
ATOM     20  C27 UNL     1     163.562 156.214 164.473  0.00  0.00    +0.000 A 
ATOM     21  C28 UNL     1     162.820 156.663 163.409  0.00  0.00    +0.000 A 
ATOM     22  C29 UNL     1     161.551 157.243 163.583  0.00  0.00    +0.000 A 
BRANCH  21  23
ATOM     23  C30 UNL     1     163.367 156.536 162.061  0.00  0.00    +0.000 C 
ATOM     24  N5  UNL     1     163.041 155.631 161.228  0.00  0.00    +0.000 NA
ATOM     25  C31 UNL     1     163.739 155.758 159.989  0.00  0.00    +0.000 C 
ATOM     26  C32 UNL     1     164.735 156.847 160.242  0.00  0.00    +0.000 C 
ATOM     27  N6  UNL     1     164.339 157.420 161.508  0.00  0.00    +0.000 N 
ATOM     28  H28 UNL     1     164.725 158.308 161.887  0.00  0.00    +0.000 HD
ENDBRANCH  21  23
ENDBRANCH  15  17
ENDBRANCH  10  13
ENDBRANCH   4   7
BRANCH   1  30
ATOM     29  O1  UNL     1     148.777 161.154 167.254  0.00  0.00    +0.000 OA
ATOM     30  C1  UNL     1     149.821 161.805 167.469  0.00  0.00    +0.000 C 
ATOM     31  N1  UNL     1     149.717 163.086 168.010  0.00  0.00    +0.000 N 
ATOM     32  H1  UNL     1     150.654 163.580 168.168  0.00  0.00    +0.000 HD
BRANCH  31  33
ATOM     33  C2  UNL     1     148.548 163.795 168.372  0.00  0.00    +0.000 A 
ATOM     34  C3  UNL     1     148.202 163.909 169.718  0.00  0.00    +0.000 A 
ATOM     35  C4  UNL     1     147.098 164.558 170.188  0.00  0.00    +0.000 A 
ATOM     36  C5  UNL     1     146.258 165.145 169.275  0.00  0.00    +0.000 A 
ATOM     37  C6  UNL     1     146.527 165.078 167.930  0.00  0.00    +0.000 A 
ATOM     38  C7  UNL     1     147.682 164.396 167.493  0.00  0.00    +0.000 A 
BRANCH  37  39
ATOM     39  C8  UNL     1     145.652 165.693 166.932  0.00  0.00    +0.000 C 
ATOM     40  N2  UNL     1     145.825 166.862 166.431  0.00  0.00    +0.000 NA
ATOM     41  C9  UNL     1     144.801 167.198 165.470  0.00  0.00    +0.000 C 
ATOM     42  C10 UNL     1     143.783 166.108 165.598  0.00  0.00    +0.000 C 
ATOM     43  N3  UNL     1     144.489 165.100 166.370  0.00  0.00    +0.000 N 
ATOM     44  H10 UNL     1     144.201 164.105 166.496  0.00  0.00    +0.000 HD
ENDBRANCH  37  39
ENDBRANCH  31  33
ENDBRANCH   1  30
TORSDOF 7
ENDMDL
MODEL 9
REMARK VINA RESULT:      -7.2      7.806     13.944
REMARK  Name = ./3D_structures\o74_MMV1580853_3D.pdb
REMARK  7 active torsions:
REMARK  status: ('A' for Active; 'I' for Inactive)
REMARK    1  A    between atoms: C1_2  and  C11_15
REMARK    2  A    between atoms: N1_3  and  C2_4
REMARK    3  A    between atoms: C6_8  and  C8_10
REMARK    4  A    between atoms: C14_18  and  C17_21
REMARK    5  A    between atoms: C20_24  and  C23_27
REMARK    6  A    between atoms: N4_29  and  C24_30
REMARK    7  A    between atoms: C28_34  and  C30_36
REMARK                            x       y       z     vdW  Elec       q    Type
REMARK                         _______ _______ _______ _____ _____    ______ ____
ROOT
ATOM      1  C11 UNL     1     157.097 144.339 162.950  0.00  0.00    +0.000 A 
ATOM      2  C12 UNL     1     158.233 144.806 163.572  0.00  0.00    +0.000 A 
ATOM      3  C13 UNL     1     158.423 146.181 163.750  0.00  0.00    +0.000 A 
ATOM      4  C14 UNL     1     157.496 147.105 163.317  0.00  0.00    +0.000 A 
ATOM      5  C15 UNL     1     156.364 146.642 162.697  0.00  0.00    +0.000 A 
ATOM      6  C16 UNL     1     156.179 145.284 162.523  0.00  0.00    +0.000 A 
ENDROOT
BRANCH   4   7
ATOM      7  C17 UNL     1     157.741 148.526 163.526  0.00  0.00    +0.000 A 
ATOM      8  C18 UNL     1     158.268 148.988 164.718  0.00  0.00    +0.000 A 
ATOM      9  C19 UNL     1     158.510 150.337 164.923  0.00  0.00    +0.000 A 
ATOM     10  C20 UNL     1     158.237 151.277 163.950  0.00  0.00    +0.000 A 
ATOM     11  C21 UNL     1     157.714 150.835 162.764  0.00  0.00    +0.000 A 
ATOM     12  C22 UNL     1     157.470 149.468 162.560  0.00  0.00    +0.000 A 
BRANCH  10  13
ATOM     13  C23 UNL     1     158.506 152.713 164.209  0.00  0.00    +0.000 C 
ATOM     14  O2  UNL     1     159.662 153.067 164.550  0.00  0.00    +0.000 OA
ATOM     15  N4  UNL     1     157.508 153.707 164.088  0.00  0.00    +0.000 N 
ATOM     16  H19 UNL     1     156.546 153.351 163.791  0.00  0.00    +0.000 HD
BRANCH  15  17
ATOM     17  C24 UNL     1     157.635 155.086 164.309  0.00  0.00    +0.000 A 
ATOM     18  C25 UNL     1     157.974 155.892 163.213  0.00  0.00    +0.000 A 
ATOM     19  C26 UNL     1     158.119 157.260 163.311  0.00  0.00    +0.000 A 
ATOM     20  C27 UNL     1     157.932 157.901 164.511  0.00  0.00    +0.000 A 
ATOM     21  C28 UNL     1     157.600 157.125 165.594  0.00  0.00    +0.000 A 
ATOM     22  C29 UNL     1     157.453 155.730 165.488  0.00  0.00    +0.000 A 
BRANCH  21  23
ATOM     23  C30 UNL     1     157.395 157.767 166.889  0.00  0.00    +0.000 C 
ATOM     24  N5  UNL     1     157.222 157.147 167.987  0.00  0.00    +0.000 NA
ATOM     25  C31 UNL     1     157.048 158.037 169.090  0.00  0.00    +0.000 C 
ATOM     26  C32 UNL     1     156.966 159.391 168.456  0.00  0.00    +0.000 C 
ATOM     27  N6  UNL     1     157.366 159.178 167.084  0.00  0.00    +0.000 N 
ATOM     28  H28 UNL     1     157.577 159.948 166.417  0.00  0.00    +0.000 HD
ENDBRANCH  21  23
ENDBRANCH  15  17
ENDBRANCH  10  13
ENDBRANCH   4   7
BRANCH   1  30
ATOM     29  O1  UNL     1     157.719 142.104 163.116  0.00  0.00    +0.000 OA
ATOM     30  C1  UNL     1     156.844 142.905 162.725  0.00  0.00    +0.000 C 
ATOM     31  N1  UNL     1     155.696 142.405 162.112  0.00  0.00    +0.000 N 
ATOM     32  H1  UNL     1     154.992 143.151 161.807  0.00  0.00    +0.000 HD
BRANCH  31  33
ATOM     33  C2  UNL     1     155.356 141.056 161.853  0.00  0.00    +0.000 A 
ATOM     34  C3  UNL     1     154.527 140.373 162.743  0.00  0.00    +0.000 A 
ATOM     35  C4  UNL     1     154.137 139.073 162.606  0.00  0.00    +0.000 A 
ATOM     36  C5  UNL     1     154.591 138.376 161.513  0.00  0.00    +0.000 A 
ATOM     37  C6  UNL     1     155.411 138.976 160.590  0.00  0.00    +0.000 A 
ATOM     38  C7  UNL     1     155.786 140.323 160.775  0.00  0.00    +0.000 A 
BRANCH  37  39
ATOM     39  C8  UNL     1     155.911 138.261 159.416  0.00  0.00    +0.000 C 
ATOM     40  N2  UNL     1     156.066 138.784 158.254  0.00  0.00    +0.000 NA
ATOM     41  C9  UNL     1     156.576 137.833 157.294  0.00  0.00    +0.000 C 
ATOM     42  C10 UNL     1     156.516 136.511 157.995  0.00  0.00    +0.000 C 
ATOM     43  N3  UNL     1     156.297 136.893 159.380  0.00  0.00    +0.000 N 
ATOM     44  H10 UNL     1     156.403 136.276 160.214  0.00  0.00    +0.000 HD
ENDBRANCH  37  39
ENDBRANCH  31  33
ENDBRANCH   1  30
TORSDOF 7
ENDMDL
