MODEL 1
REMARK VINA RESULT:      -5.6      0.000      0.000
REMARK  Name = ./3D_structures\o79_MMV1579786_3D.pdb
REMARK  7 active torsions:
REMARK  status: ('A' for Active; 'I' for Inactive)
REMARK    1  A    between atoms: N1_1  and  C1_2
REMARK    2  A    between atoms: C1_2  and  C2_3
REMARK    3  A    between atoms: C2_3  and  C3_4
REMARK    4  A    between atoms: C3_4  and  C4_5
REMARK    5  A    between atoms: C5_6  and  C10_11
REMARK    6  A    between atoms: C13_17  and  N4_19
REMARK    7  A    between atoms: N4_19  and  O2_20
REMARK                            x       y       z     vdW  Elec       q    Type
REMARK                         _______ _______ _______ _____ _____    ______ ____
ROOT
ATOM      1  C10 UNL     1     151.033 165.428 165.780  0.00  0.00    +0.000 C 
ATOM      2  O1  UNL     1     151.029 164.667 166.819  0.00  0.00    +0.000 OA
ATOM      3  N2  UNL     1     149.797 166.000 165.468  0.00  0.00    +0.000 N 
ATOM      4  C11 UNL     1     148.606 165.805 166.199  0.00  0.00    +0.000 A 
ATOM      5  N3  UNL     1     147.350 166.266 165.906  0.00  0.00    +0.000 NA
ATOM      6  C12 UNL     1     146.406 166.008 166.672  0.00  0.00    +0.000 A 
ATOM      7  C13 UNL     1     146.517 165.272 167.839  0.00  0.00    +0.000 A 
ATOM      8  S1  UNL     1     148.356 164.931 167.723  0.00  0.00    +0.000 S 
ATOM      9  H13 UNL     1     149.727 166.627 164.639  0.00  0.00    +0.000 HD
ENDROOT
BRANCH   1  11
ATOM     10  C4  UNL     1     152.866 164.563 164.376  0.00  0.00    +0.000 A 
ATOM     11  C5  UNL     1     152.282 165.557 165.096  0.00  0.00    +0.000 A 
ATOM     12  C6  UNL     1     152.990 166.740 165.321  0.00  0.00    +0.000 A 
ATOM     13  C7  UNL     1     154.281 166.949 164.839  0.00  0.00    +0.000 A 
ATOM     14  C8  UNL     1     154.852 165.915 164.110  0.00  0.00    +0.000 A 
ATOM     15  C9  UNL     1     154.152 164.739 163.887  0.00  0.00    +0.000 A 
BRANCH  10  16
ATOM     16  C3  UNL     1     152.158 163.377 163.935  0.00  0.00    +0.000 C 
BRANCH  16  17
ATOM     17  C2  UNL     1     152.742 162.093 164.524  0.00  0.00    +0.000 C 
BRANCH  17  18
ATOM     18  C1  UNL     1     151.739 161.189 165.166  0.00  0.00    +0.000 C 
BRANCH  18  19
ATOM     19  N1  UNL     1     151.114 161.701 166.352  0.00  0.00    +0.000 NA
ATOM     20  H1  UNL     1     151.798 162.225 166.959  0.00  0.00    +0.000 HD
ATOM     21  H2  UNL     1     150.292 162.322 166.116  0.00  0.00    +0.000 HD
ENDBRANCH  18  19
ENDBRANCH  17  18
ENDBRANCH  16  17
ENDBRANCH  10  16
ENDBRANCH   1  11
BRANCH   7  22
ATOM     22  N4  UNL     1     145.691 164.828 168.833  0.00  0.00    +0.000 N 
ATOM     23  O3  UNL     1     144.798 163.997 168.603  0.00  0.00    +0.000 OA
BRANCH  22  24
ATOM     24  O2  UNL     1     145.816 165.276 170.128  0.00  0.00    +0.000 OA
ATOM     25  H15 UNL     1     145.000 165.294 170.751  0.00  0.00    +0.000 HD
ENDBRANCH  22  24
ENDBRANCH   7  22
TORSDOF 7
ENDMDL
MODEL 2
REMARK VINA RESULT:      -5.3     21.649     24.184
REMARK  Name = ./3D_structures\o79_MMV1579786_3D.pdb
REMARK  7 active torsions:
REMARK  status: ('A' for Active; 'I' for Inactive)
REMARK    1  A    between atoms: N1_1  and  C1_2
REMARK    2  A    between atoms: C1_2  and  C2_3
REMARK    3  A    between atoms: C2_3  and  C3_4
REMARK    4  A    between atoms: C3_4  and  C4_5
REMARK    5  A    between atoms: C5_6  and  C10_11
REMARK    6  A    between atoms: C13_17  and  N4_19
REMARK    7  A    between atoms: N4_19  and  O2_20
REMARK                            x       y       z     vdW  Elec       q    Type
REMARK                         _______ _______ _______ _____ _____    ______ ____
ROOT
ATOM      1  C10 UNL     1     161.580 145.455 168.202  0.00  0.00    +0.000 C 
ATOM      2  O1  UNL     1     160.760 145.483 167.209  0.00  0.00    +0.000 OA
ATOM      3  N2  UNL     1     162.135 144.200 168.467  0.00  0.00    +0.000 N 
ATOM      4  C11 UNL     1     161.867 143.024 167.736  0.00  0.00    +0.000 A 
ATOM      5  N3  UNL     1     162.310 141.753 167.988  0.00  0.00    +0.000 NA
ATOM      6  C12 UNL     1     161.983 140.825 167.229  0.00  0.00    +0.000 A 
ATOM      7  C13 UNL     1     161.184 140.969 166.108  0.00  0.00    +0.000 A 
ATOM      8  S1  UNL     1     160.900 142.815 166.263  0.00  0.00    +0.000 S 
ATOM      9  H13 UNL     1     162.808 144.104 169.258  0.00  0.00    +0.000 HD
ENDROOT
BRANCH   1  11
ATOM     10  C4  UNL     1     161.217 147.001 170.088  0.00  0.00    +0.000 A 
ATOM     11  C5  UNL     1     161.782 146.691 168.890  0.00  0.00    +0.000 A 
ATOM     12  C6  UNL     1     162.488 147.676 168.196  0.00  0.00    +0.000 A 
ATOM     13  C7  UNL     1     162.641 148.975 168.678  0.00  0.00    +0.000 A 
ATOM     14  C8  UNL     1     162.051 149.263 169.901  0.00  0.00    +0.000 A 
ATOM     15  C9  UNL     1     161.347 148.287 170.592  0.00  0.00    +0.000 A 
BRANCH  10  16
ATOM     16  C3  UNL     1     160.622 146.014 170.967  0.00  0.00    +0.000 C 
BRANCH  16  17
ATOM     17  C2  UNL     1     161.562 145.593 172.097  0.00  0.00    +0.000 C 
BRANCH  17  18
ATOM     18  C1  UNL     1     161.475 144.148 172.473  0.00  0.00    +0.000 C 
BRANCH  18  19
ATOM     19  N1  UNL     1     161.405 143.226 171.377  0.00  0.00    +0.000 NA
ATOM     20  H1  UNL     1     160.604 142.550 171.485  0.00  0.00    +0.000 HD
ATOM     21  H2  UNL     1     161.328 143.732 170.453  0.00  0.00    +0.000 HD
ENDBRANCH  18  19
ENDBRANCH  17  18
ENDBRANCH  16  17
ENDBRANCH  10  16
ENDBRANCH   1  11
BRANCH   7  22
ATOM     22  N4  UNL     1     160.661 140.167 165.133  0.00  0.00    +0.000 N 
ATOM     23  O3  UNL     1     159.970 140.638 164.216  0.00  0.00    +0.000 OA
BRANCH  22  24
ATOM     24  O2  UNL     1     160.883 138.809 165.121  0.00  0.00    +0.000 OA
ATOM     25  H15 UNL     1     161.728 138.419 165.553  0.00  0.00    +0.000 HD
ENDBRANCH  22  24
ENDBRANCH   7  22
TORSDOF 7
ENDMDL
MODEL 3
REMARK VINA RESULT:      -5.3      2.210      4.035
REMARK  Name = ./3D_structures\o79_MMV1579786_3D.pdb
REMARK  7 active torsions:
REMARK  status: ('A' for Active; 'I' for Inactive)
REMARK    1  A    between atoms: N1_1  and  C1_2
REMARK    2  A    between atoms: C1_2  and  C2_3
REMARK    3  A    between atoms: C2_3  and  C3_4
REMARK    4  A    between atoms: C3_4  and  C4_5
REMARK    5  A    between atoms: C5_6  and  C10_11
REMARK    6  A    between atoms: C13_17  and  N4_19
REMARK    7  A    between atoms: N4_19  and  O2_20
REMARK                            x       y       z     vdW  Elec       q    Type
REMARK                         _______ _______ _______ _____ _____    ______ ____
ROOT
ATOM      1  C10 UNL     1     150.972 161.599 167.434  0.00  0.00    +0.000 C 
ATOM      2  O1  UNL     1     150.077 161.007 168.148  0.00  0.00    +0.000 OA
ATOM      3  N2  UNL     1     150.644 162.902 167.049  0.00  0.00    +0.000 N 
ATOM      4  C11 UNL     1     149.451 163.573 167.391  0.00  0.00    +0.000 A 
ATOM      5  N3  UNL     1     149.034 164.812 166.984  0.00  0.00    +0.000 NA
ATOM      6  C12 UNL     1     147.949 165.261 167.393  0.00  0.00    +0.000 A 
ATOM      7  C13 UNL     1     147.098 164.596 168.259  0.00  0.00    +0.000 A 
ATOM      8  S1  UNL     1     148.136 163.048 168.459  0.00  0.00    +0.000 S 
ATOM      9  H13 UNL     1     151.323 163.441 166.469  0.00  0.00    +0.000 HD
ENDROOT
BRANCH   1  11
ATOM     10  C4  UNL     1     152.636 160.666 165.872  0.00  0.00    +0.000 A 
ATOM     11  C5  UNL     1     152.142 160.838 167.128  0.00  0.00    +0.000 A 
ATOM     12  C6  UNL     1     152.705 160.119 168.184  0.00  0.00    +0.000 A 
ATOM     13  C7  UNL     1     153.759 159.223 168.010  0.00  0.00    +0.000 A 
ATOM     14  C8  UNL     1     154.240 159.066 166.717  0.00  0.00    +0.000 A 
ATOM     15  C9  UNL     1     153.681 159.778 165.666  0.00  0.00    +0.000 A 
BRANCH  10  16
ATOM     16  C3  UNL     1     152.248 161.489 164.744  0.00  0.00    +0.000 C 
BRANCH  16  17
ATOM     17  C2  UNL     1     153.172 162.692 164.551  0.00  0.00    +0.000 C 
BRANCH  17  18
ATOM     18  C1  UNL     1     152.543 163.854 163.849  0.00  0.00    +0.000 C 
BRANCH  18  19
ATOM     19  N1  UNL     1     151.439 164.466 164.531  0.00  0.00    +0.000 NA
ATOM     20  H1  UNL     1     150.858 165.059 163.882  0.00  0.00    +0.000 HD
ATOM     21  H2  UNL     1     150.830 163.743 165.002  0.00  0.00    +0.000 HD
ENDBRANCH  18  19
ENDBRANCH  17  18
ENDBRANCH  16  17
ENDBRANCH  10  16
ENDBRANCH   1  11
BRANCH   7  22
ATOM     22  N4  UNL     1     145.884 164.815 168.846  0.00  0.00    +0.000 N 
ATOM     23  O3  UNL     1     144.839 164.370 168.346  0.00  0.00    +0.000 OA
BRANCH  22  24
ATOM     24  O2  UNL     1     145.768 165.532 170.015  0.00  0.00    +0.000 OA
ATOM     25  H15 UNL     1     146.577 166.036 170.395  0.00  0.00    +0.000 HD
ENDBRANCH  22  24
ENDBRANCH   7  22
TORSDOF 7
ENDMDL
MODEL 4
REMARK VINA RESULT:      -5.2      1.285      2.727
REMARK  Name = ./3D_structures\o79_MMV1579786_3D.pdb
REMARK  7 active torsions:
REMARK  status: ('A' for Active; 'I' for Inactive)
REMARK    1  A    between atoms: N1_1  and  C1_2
REMARK    2  A    between atoms: C1_2  and  C2_3
REMARK    3  A    between atoms: C2_3  and  C3_4
REMARK    4  A    between atoms: C3_4  and  C4_5
REMARK    5  A    between atoms: C5_6  and  C10_11
REMARK    6  A    between atoms: C13_17  and  N4_19
REMARK    7  A    between atoms: N4_19  and  O2_20
REMARK                            x       y       z     vdW  Elec       q    Type
REMARK                         _______ _______ _______ _____ _____    ______ ____
ROOT
ATOM      1  C10 UNL     1     150.980 164.779 165.622  0.00  0.00    +0.000 C 
ATOM      2  O1  UNL     1     150.832 163.902 166.554  0.00  0.00    +0.000 OA
ATOM      3  N2  UNL     1     149.877 165.615 165.425  0.00  0.00    +0.000 N 
ATOM      4  C11 UNL     1     148.674 165.557 166.159  0.00  0.00    +0.000 A 
ATOM      5  N3  UNL     1     147.532 166.286 165.966  0.00  0.00    +0.000 NA
ATOM      6  C12 UNL     1     146.558 166.115 166.719  0.00  0.00    +0.000 A 
ATOM      7  C13 UNL     1     146.528 165.223 167.778  0.00  0.00    +0.000 A 
ATOM      8  S1  UNL     1     148.265 164.553 167.563  0.00  0.00    +0.000 S 
ATOM      9  H13 UNL     1     149.928 166.348 164.686  0.00  0.00    +0.000 HD
ENDROOT
BRANCH   1  11
ATOM     10  C4  UNL     1     153.109 165.790 164.896  0.00  0.00    +0.000 A 
ATOM     11  C5  UNL     1     152.227 164.755 164.924  0.00  0.00    +0.000 A 
ATOM     12  C6  UNL     1     152.458 163.643 164.111  0.00  0.00    +0.000 A 
ATOM     13  C7  UNL     1     153.560 163.546 163.262  0.00  0.00    +0.000 A 
ATOM     14  C8  UNL     1     154.440 164.619 163.254  0.00  0.00    +0.000 A 
ATOM     15  C9  UNL     1     154.212 165.726 164.059  0.00  0.00    +0.000 A 
BRANCH  10  16
ATOM     16  C3  UNL     1     153.060 166.903 165.825  0.00  0.00    +0.000 C 
BRANCH  16  17
ATOM     17  C2  UNL     1     153.555 166.523 167.221  0.00  0.00    +0.000 C 
BRANCH  17  18
ATOM     18  C1  UNL     1     152.635 166.911 168.335  0.00  0.00    +0.000 C 
BRANCH  18  19
ATOM     19  N1  UNL     1     151.330 167.352 167.935  0.00  0.00    +0.000 NA
ATOM     20  H1  UNL     1     150.576 166.962 168.560  0.00  0.00    +0.000 HD
ATOM     21  H2  UNL     1     151.271 168.406 167.913  0.00  0.00    +0.000 HD
ENDBRANCH  18  19
ENDBRANCH  17  18
ENDBRANCH  16  17
ENDBRANCH  10  16
ENDBRANCH   1  11
BRANCH   7  22
ATOM     22  N4  UNL     1     145.636 164.818 168.730  0.00  0.00    +0.000 N 
ATOM     23  O3  UNL     1     144.711 164.038 168.453  0.00  0.00    +0.000 OA
BRANCH  22  24
ATOM     24  O2  UNL     1     145.727 165.250 170.033  0.00  0.00    +0.000 OA
ATOM     25  H15 UNL     1     145.598 164.588 170.807  0.00  0.00    +0.000 HD
ENDBRANCH  22  24
ENDBRANCH   7  22
TORSDOF 7
ENDMDL
MODEL 5
REMARK VINA RESULT:      -5.2      4.338      5.611
REMARK  Name = ./3D_structures\o79_MMV1579786_3D.pdb
REMARK  7 active torsions:
REMARK  status: ('A' for Active; 'I' for Inactive)
REMARK    1  A    between atoms: N1_1  and  C1_2
REMARK    2  A    between atoms: C1_2  and  C2_3
REMARK    3  A    between atoms: C2_3  and  C3_4
REMARK    4  A    between atoms: C3_4  and  C4_5
REMARK    5  A    between atoms: C5_6  and  C10_11
REMARK    6  A    between atoms: C13_17  and  N4_19
REMARK    7  A    between atoms: N4_19  and  O2_20
REMARK                            x       y       z     vdW  Elec       q    Type
REMARK                         _______ _______ _______ _____ _____    ______ ____
ROOT
ATOM      1  C10 UNL     1     151.475 160.969 168.325  0.00  0.00    +0.000 C 
ATOM      2  O1  UNL     1     151.886 162.002 168.975  0.00  0.00    +0.000 OA
ATOM      3  N2  UNL     1     150.092 160.910 168.135  0.00  0.00    +0.000 N 
ATOM      4  C11 UNL     1     149.169 161.877 168.586  0.00  0.00    +0.000 A 
ATOM      5  N3  UNL     1     147.803 161.842 168.506  0.00  0.00    +0.000 NA
ATOM      6  C12 UNL     1     147.136 162.793 168.948  0.00  0.00    +0.000 A 
ATOM      7  C13 UNL     1     147.673 163.927 169.533  0.00  0.00    +0.000 A 
ATOM      8  S1  UNL     1     149.475 163.437 169.373  0.00  0.00    +0.000 S 
ATOM      9  H13 UNL     1     149.689 160.100 167.616  0.00  0.00    +0.000 HD
ENDROOT
BRANCH   1  11
ATOM     10  C4  UNL     1     153.079 159.145 168.750  0.00  0.00    +0.000 A 
ATOM     11  C5  UNL     1     152.480 160.037 167.917  0.00  0.00    +0.000 A 
ATOM     12  C6  UNL     1     152.957 160.176 166.612  0.00  0.00    +0.000 A 
ATOM     13  C7  UNL     1     154.032 159.437 166.120  0.00  0.00    +0.000 A 
ATOM     14  C8  UNL     1     154.625 158.536 166.995  0.00  0.00    +0.000 A 
ATOM     15  C9  UNL     1     154.154 158.398 168.292  0.00  0.00    +0.000 A 
BRANCH  10  16
ATOM     16  C3  UNL     1     152.553 158.796 170.056  0.00  0.00    +0.000 C 
BRANCH  16  17
ATOM     17  C2  UNL     1     151.513 157.677 169.988  0.00  0.00    +0.000 C 
BRANCH  17  18
ATOM     18  C1  UNL     1     150.213 157.993 170.655  0.00  0.00    +0.000 C 
BRANCH  18  19
ATOM     19  N1  UNL     1     149.167 158.450 169.786  0.00  0.00    +0.000 NA
ATOM     20  H1  UNL     1     148.936 159.466 169.952  0.00  0.00    +0.000 HD
ATOM     21  H2  UNL     1     149.416 158.298 168.771  0.00  0.00    +0.000 HD
ENDBRANCH  18  19
ENDBRANCH  17  18
ENDBRANCH  16  17
ENDBRANCH  10  16
ENDBRANCH   1  11
BRANCH   7  22
ATOM     22  N4  UNL     1     147.215 165.080 170.105  0.00  0.00    +0.000 N 
ATOM     23  O3  UNL     1     147.973 165.825 170.746  0.00  0.00    +0.000 OA
BRANCH  22  24
ATOM     24  O2  UNL     1     145.899 165.468 169.990  0.00  0.00    +0.000 OA
ATOM     25  H15 UNL     1     145.318 165.579 170.829  0.00  0.00    +0.000 HD
ENDBRANCH  22  24
ENDBRANCH   7  22
TORSDOF 7
ENDMDL
MODEL 6
REMARK VINA RESULT:      -5.2      2.693      3.707
REMARK  Name = ./3D_structures\o79_MMV1579786_3D.pdb
REMARK  7 active torsions:
REMARK  status: ('A' for Active; 'I' for Inactive)
REMARK    1  A    between atoms: N1_1  and  C1_2
REMARK    2  A    between atoms: C1_2  and  C2_3
REMARK    3  A    between atoms: C2_3  and  C3_4
REMARK    4  A    between atoms: C3_4  and  C4_5
REMARK    5  A    between atoms: C5_6  and  C10_11
REMARK    6  A    between atoms: C13_17  and  N4_19
REMARK    7  A    between atoms: N4_19  and  O2_20
REMARK                            x       y       z     vdW  Elec       q    Type
REMARK                         _______ _______ _______ _____ _____    ______ ____
ROOT
ATOM      1  C10 UNL     1     149.365 165.491 166.187  0.00  0.00    +0.000 C 
ATOM      2  O1  UNL     1     148.779 164.343 166.187  0.00  0.00    +0.000 OA
ATOM      3  N2  UNL     1     148.508 166.585 166.041  0.00  0.00    +0.000 N 
ATOM      4  C11 UNL     1     147.106 166.505 165.909  0.00  0.00    +0.000 A 
ATOM      5  N3  UNL     1     146.220 167.524 165.683  0.00  0.00    +0.000 NA
ATOM      6  C12 UNL     1     145.005 167.277 165.603  0.00  0.00    +0.000 A 
ATOM      7  C13 UNL     1     144.447 166.016 165.732  0.00  0.00    +0.000 A 
ATOM      8  S1  UNL     1     146.049 165.084 166.013  0.00  0.00    +0.000 S 
ATOM      9  H13 UNL     1     148.915 167.545 166.032  0.00  0.00    +0.000 HD
ENDROOT
BRANCH   1  11
ATOM     10  C4  UNL     1     151.459 165.798 167.452  0.00  0.00    +0.000 A 
ATOM     11  C5  UNL     1     150.788 165.473 166.314  0.00  0.00    +0.000 A 
ATOM     12  C6  UNL     1     151.510 165.248 165.140  0.00  0.00    +0.000 A 
ATOM     13  C7  UNL     1     152.900 165.343 165.079  0.00  0.00    +0.000 A 
ATOM     14  C8  UNL     1     153.556 165.679 166.256  0.00  0.00    +0.000 A 
ATOM     15  C9  UNL     1     152.841 165.905 167.423  0.00  0.00    +0.000 A 
BRANCH  10  16
ATOM     16  C3  UNL     1     150.827 165.875 168.755  0.00  0.00    +0.000 C 
BRANCH  16  17
ATOM     17  C2  UNL     1     150.706 164.507 169.429  0.00  0.00    +0.000 C 
BRANCH  17  18
ATOM     18  C1  UNL     1     149.320 164.144 169.856  0.00  0.00    +0.000 C 
BRANCH  18  19
ATOM     19  N1  UNL     1     148.594 165.173 170.543  0.00  0.00    +0.000 NA
ATOM     20  H1  UNL     1     149.240 165.872 170.996  0.00  0.00    +0.000 HD
ATOM     21  H2  UNL     1     147.923 165.669 169.894  0.00  0.00    +0.000 HD
ENDBRANCH  18  19
ENDBRANCH  17  18
ENDBRANCH  16  17
ENDBRANCH  10  16
ENDBRANCH   1  11
BRANCH   7  22
ATOM     22  N4  UNL     1     143.204 165.453 165.678  0.00  0.00    +0.000 N 
ATOM     23  O3  UNL     1     143.035 164.244 165.902  0.00  0.00    +0.000 OA
BRANCH  22  24
ATOM     24  O2  UNL     1     142.087 166.200 165.379  0.00  0.00    +0.000 OA
ATOM     25  H15 UNL     1     141.411 166.436 166.115  0.00  0.00    +0.000 HD
ENDBRANCH  22  24
ENDBRANCH   7  22
TORSDOF 7
ENDMDL
MODEL 7
REMARK VINA RESULT:      -5.1      2.440      3.183
REMARK  Name = ./3D_structures\o79_MMV1579786_3D.pdb
REMARK  7 active torsions:
REMARK  status: ('A' for Active; 'I' for Inactive)
REMARK    1  A    between atoms: N1_1  and  C1_2
REMARK    2  A    between atoms: C1_2  and  C2_3
REMARK    3  A    between atoms: C2_3  and  C3_4
REMARK    4  A    between atoms: C3_4  and  C4_5
REMARK    5  A    between atoms: C5_6  and  C10_11
REMARK    6  A    between atoms: C13_17  and  N4_19
REMARK    7  A    between atoms: N4_19  and  O2_20
REMARK                            x       y       z     vdW  Elec       q    Type
REMARK                         _______ _______ _______ _____ _____    ______ ____
ROOT
ATOM      1  C10 UNL     1     149.401 165.554 166.934  0.00  0.00    +0.000 C 
ATOM      2  O1  UNL     1     148.795 164.429 167.093  0.00  0.00    +0.000 OA
ATOM      3  N2  UNL     1     148.593 166.593 166.464  0.00  0.00    +0.000 N 
ATOM      4  C11 UNL     1     147.216 166.482 166.176  0.00  0.00    +0.000 A 
ATOM      5  N3  UNL     1     146.387 167.431 165.640  0.00  0.00    +0.000 NA
ATOM      6  C12 UNL     1     145.186 167.167 165.460  0.00  0.00    +0.000 A 
ATOM      7  C13 UNL     1     144.589 165.957 165.770  0.00  0.00    +0.000 A 
ATOM      8  S1  UNL     1     146.124 165.108 166.432  0.00  0.00    +0.000 S 
ATOM      9  H13 UNL     1     149.018 167.532 166.312  0.00  0.00    +0.000 HD
ENDROOT
BRANCH   1  11
ATOM     10  C4  UNL     1     151.779 165.276 166.346  0.00  0.00    +0.000 A 
ATOM     11  C5  UNL     1     150.797 165.569 167.240  0.00  0.00    +0.000 A 
ATOM     12  C6  UNL     1     151.134 165.757 168.582  0.00  0.00    +0.000 A 
ATOM     13  C7  UNL     1     152.442 165.654 169.053  0.00  0.00    +0.000 A 
ATOM     14  C8  UNL     1     153.422 165.350 168.117  0.00  0.00    +0.000 A 
ATOM     15  C9  UNL     1     153.090 165.161 166.784  0.00  0.00    +0.000 A 
BRANCH  10  16
ATOM     16  C3  UNL     1     151.566 165.240 164.912  0.00  0.00    +0.000 C 
BRANCH  16  17
ATOM     17  C2  UNL     1     152.875 165.133 164.128  0.00  0.00    +0.000 C 
BRANCH  17  18
ATOM     18  C1  UNL     1     153.157 163.775 163.568  0.00  0.00    +0.000 C 
BRANCH  18  19
ATOM     19  N1  UNL     1     152.017 162.917 163.421  0.00  0.00    +0.000 NA
ATOM     20  H1  UNL     1     151.990 162.462 162.471  0.00  0.00    +0.000 HD
ATOM     21  H2  UNL     1     151.993 162.178 164.175  0.00  0.00    +0.000 HD
ENDBRANCH  18  19
ENDBRANCH  17  18
ENDBRANCH  16  17
ENDBRANCH  10  16
ENDBRANCH   1  11
BRANCH   7  22
ATOM     22  N4  UNL     1     143.350 165.390 165.675  0.00  0.00    +0.000 N 
ATOM     23  O3  UNL     1     143.187 164.171 165.845  0.00  0.00    +0.000 OA
BRANCH  22  24
ATOM     24  O2  UNL     1     142.233 166.142 165.395  0.00  0.00    +0.000 OA
ATOM     25  H15 UNL     1     142.132 167.085 165.788  0.00  0.00    +0.000 HD
ENDBRANCH  22  24
ENDBRANCH   7  22
TORSDOF 7
ENDMDL
MODEL 8
REMARK VINA RESULT:      -5.1      3.757      5.719
REMARK  Name = ./3D_structures\o79_MMV1579786_3D.pdb
REMARK  7 active torsions:
REMARK  status: ('A' for Active; 'I' for Inactive)
REMARK    1  A    between atoms: N1_1  and  C1_2
REMARK    2  A    between atoms: C1_2  and  C2_3
REMARK    3  A    between atoms: C2_3  and  C3_4
REMARK    4  A    between atoms: C3_4  and  C4_5
REMARK    5  A    between atoms: C5_6  and  C10_11
REMARK    6  A    between atoms: C13_17  and  N4_19
REMARK    7  A    between atoms: N4_19  and  O2_20
REMARK                            x       y       z     vdW  Elec       q    Type
REMARK                         _______ _______ _______ _____ _____    ______ ____
ROOT
ATOM      1  C10 UNL     1     152.276 160.984 167.244  0.00  0.00    +0.000 C 
ATOM      2  O1  UNL     1     152.907 162.105 167.175  0.00  0.00    +0.000 OA
ATOM      3  N2  UNL     1     150.883 161.098 167.267  0.00  0.00    +0.000 N 
ATOM      4  C11 UNL     1     150.167 162.313 167.213  0.00  0.00    +0.000 A 
ATOM      5  N3  UNL     1     148.815 162.501 167.312  0.00  0.00    +0.000 NA
ATOM      6  C12 UNL     1     148.346 163.649 167.231  0.00  0.00    +0.000 A 
ATOM      7  C13 UNL     1     149.098 164.796 167.039  0.00  0.00    +0.000 A 
ATOM      8  S1  UNL     1     150.776 163.963 166.980  0.00  0.00    +0.000 S 
ATOM      9  H13 UNL     1     150.308 160.231 167.323  0.00  0.00    +0.000 HD
ENDROOT
BRANCH   1  11
ATOM     10  C4  UNL     1     153.340 159.116 168.450  0.00  0.00    +0.000 A 
ATOM     11  C5  UNL     1     153.083 159.807 167.307  0.00  0.00    +0.000 A 
ATOM     12  C6  UNL     1     153.753 159.454 166.133  0.00  0.00    +0.000 A 
ATOM     13  C7  UNL     1     154.684 158.418 166.079  0.00  0.00    +0.000 A 
ATOM     14  C8  UNL     1     154.928 157.733 167.262  0.00  0.00    +0.000 A 
ATOM     15  C9  UNL     1     154.265 158.082 168.429  0.00  0.00    +0.000 A 
BRANCH  10  16
ATOM     16  C3  UNL     1     152.575 159.280 169.670  0.00  0.00    +0.000 C 
BRANCH  16  17
ATOM     17  C2  UNL     1     151.562 158.155 169.882  0.00  0.00    +0.000 C 
BRANCH  17  18
ATOM     18  C1  UNL     1     150.206 158.612 170.318  0.00  0.00    +0.000 C 
BRANCH  18  19
ATOM     19  N1  UNL     1     149.438 159.307 169.326  0.00  0.00    +0.000 NA
ATOM     20  H1  UNL     1     148.927 158.641 168.688  0.00  0.00    +0.000 HD
ATOM     21  H2  UNL     1     148.754 159.978 169.770  0.00  0.00    +0.000 HD
ENDBRANCH  18  19
ENDBRANCH  17  18
ENDBRANCH  16  17
ENDBRANCH  10  16
ENDBRANCH   1  11
BRANCH   7  22
ATOM     22  N4  UNL     1     148.877 166.140 166.932  0.00  0.00    +0.000 N 
ATOM     23  O3  UNL     1     147.924 166.584 166.274  0.00  0.00    +0.000 OA
BRANCH  22  24
ATOM     24  O2  UNL     1     149.696 167.056 167.552  0.00  0.00    +0.000 OA
ATOM     25  H15 UNL     1     150.558 167.372 167.093  0.00  0.00    +0.000 HD
ENDBRANCH  22  24
ENDBRANCH   7  22
TORSDOF 7
ENDMDL
MODEL 9
REMARK VINA RESULT:      -4.8      3.402      5.306
REMARK  Name = ./3D_structures\o79_MMV1579786_3D.pdb
REMARK  7 active torsions:
REMARK  status: ('A' for Active; 'I' for Inactive)
REMARK    1  A    between atoms: N1_1  and  C1_2
REMARK    2  A    between atoms: C1_2  and  C2_3
REMARK    3  A    between atoms: C2_3  and  C3_4
REMARK    4  A    between atoms: C3_4  and  C4_5
REMARK    5  A    between atoms: C5_6  and  C10_11
REMARK    6  A    between atoms: C13_17  and  N4_19
REMARK    7  A    between atoms: N4_19  and  O2_20
REMARK                            x       y       z     vdW  Elec       q    Type
REMARK                         _______ _______ _______ _____ _____    ______ ____
ROOT
ATOM      1  C10 UNL     1     151.492 160.637 168.673  0.00  0.00    +0.000 C 
ATOM      2  O1  UNL     1     151.569 161.440 169.677  0.00  0.00    +0.000 OA
ATOM      3  N2  UNL     1     150.345 160.789 167.889  0.00  0.00    +0.000 N 
ATOM      4  C11 UNL     1     149.322 161.733 168.122  0.00  0.00    +0.000 A 
ATOM      5  N3  UNL     1     148.141 161.881 167.447  0.00  0.00    +0.000 NA
ATOM      6  C12 UNL     1     147.350 162.780 167.781  0.00  0.00    +0.000 A 
ATOM      7  C13 UNL     1     147.570 163.680 168.810  0.00  0.00    +0.000 A 
ATOM      8  S1  UNL     1     149.246 163.027 169.334  0.00  0.00    +0.000 S 
ATOM      9  H13 UNL     1     150.217 160.171 167.059  0.00  0.00    +0.000 HD
ENDROOT
BRANCH   1  11
ATOM     10  C4  UNL     1     153.472 159.742 167.507  0.00  0.00    +0.000 A 
ATOM     11  C5  UNL     1     152.568 159.708 168.522  0.00  0.00    +0.000 A 
ATOM     12  C6  UNL     1     152.576 158.625 169.404  0.00  0.00    +0.000 A 
ATOM     13  C7  UNL     1     153.475 157.566 169.289  0.00  0.00    +0.000 A 
ATOM     14  C8  UNL     1     154.384 157.627 168.241  0.00  0.00    +0.000 A 
ATOM     15  C9  UNL     1     154.377 158.701 167.363  0.00  0.00    +0.000 A 
BRANCH  10  16
ATOM     16  C3  UNL     1     153.666 160.897 166.651  0.00  0.00    +0.000 C 
BRANCH  16  17
ATOM     17  C2  UNL     1     153.163 160.661 165.227  0.00  0.00    +0.000 C 
BRANCH  17  18
ATOM     18  C1  UNL     1     152.082 161.596 164.786  0.00  0.00    +0.000 C 
BRANCH  18  19
ATOM     19  N1  UNL     1     151.798 162.681 165.680  0.00  0.00    +0.000 NA
ATOM     20  H1  UNL     1     152.272 163.572 165.378  0.00  0.00    +0.000 HD
ATOM     21  H2  UNL     1     150.758 162.839 165.773  0.00  0.00    +0.000 HD
ENDBRANCH  18  19
ENDBRANCH  17  18
ENDBRANCH  16  17
ENDBRANCH  10  16
ENDBRANCH   1  11
BRANCH   7  22
ATOM     22  N4  UNL     1     146.908 164.721 169.397  0.00  0.00    +0.000 N 
ATOM     23  O3  UNL     1     147.175 165.081 170.554  0.00  0.00    +0.000 OA
BRANCH  22  24
ATOM     24  O2  UNL     1     145.924 165.417 168.732  0.00  0.00    +0.000 OA
ATOM     25  H15 UNL     1     145.590 166.316 169.097  0.00  0.00    +0.000 HD
ENDBRANCH  22  24
ENDBRANCH   7  22
TORSDOF 7
ENDMDL
