MODEL 1
REMARK VINA RESULT:      -6.8      0.000      0.000
REMARK  Name = ./3D_structures\o80_MMV1579784_3D.pdb
REMARK  6 active torsions:
REMARK  status: ('A' for Active; 'I' for Inactive)
REMARK    1  A    between atoms: O1_1  and  C1_2
REMARK    2  A    between atoms: C1_2  and  C2_4
REMARK    3  A    between atoms: C7_9  and  N1_10
REMARK    4  A    between atoms: C8_11  and  C9_13
REMARK    5  A    between atoms: C13_17  and  O4_18
REMARK    6  A    between atoms: O4_18  and  C14_19
REMARK                            x       y       z     vdW  Elec       q    Type
REMARK                         _______ _______ _______ _____ _____    ______ ____
ROOT
ATOM      1  N1  UNL     1     146.437 164.827 167.385  0.00  0.00    +0.000 N 
ATOM      2  C8  UNL     1     146.635 164.951 168.763  0.00  0.00    +0.000 C 
ATOM      3  O3  UNL     1     145.685 165.130 169.546  0.00  0.00    +0.000 OA
ATOM      4  H6  UNL     1     147.337 164.693 166.831  0.00  0.00    +0.000 HD
ENDROOT
BRANCH   1  10
ATOM      5  C2  UNL     1     144.829 166.010 165.993  0.00  0.00    +0.000 A 
ATOM      6  C3  UNL     1     143.560 166.055 165.368  0.00  0.00    +0.000 A 
ATOM      7  C4  UNL     1     142.671 165.044 165.455  0.00  0.00    +0.000 A 
ATOM      8  C5  UNL     1     143.009 163.935 166.178  0.00  0.00    +0.000 A 
ATOM      9  C6  UNL     1     144.247 163.891 166.788  0.00  0.00    +0.000 A 
ATOM     10  C7  UNL     1     145.191 164.887 166.734  0.00  0.00    +0.000 A 
BRANCH   5  11
ATOM     11  C1  UNL     1     145.685 167.158 165.798  0.00  0.00    +0.000 C 
ATOM     12  O2  UNL     1     146.914 167.137 165.678  0.00  0.00    +0.000 OA
BRANCH  11  13
ATOM     13  O1  UNL     1     145.115 168.443 165.729  0.00  0.00    +0.000 OA
ATOM     14  H1  UNL     1     145.250 169.136 166.451  0.00  0.00    +0.000 HD
ENDBRANCH  11  13
ENDBRANCH   5  11
ENDBRANCH   1  10
BRANCH   2  15
ATOM     15  C9  UNL     1     147.975 164.879 169.373  0.00  0.00    +0.000 A 
ATOM     16  C10 UNL     1     148.813 163.834 169.111  0.00  0.00    +0.000 A 
ATOM     17  C11 UNL     1     150.069 163.819 169.708  0.00  0.00    +0.000 A 
ATOM     18  C12 UNL     1     150.471 164.824 170.542  0.00  0.00    +0.000 A 
ATOM     19  C13 UNL     1     149.644 165.881 170.817  0.00  0.00    +0.000 A 
ATOM     20  C20 UNL     1     148.405 165.877 170.216  0.00  0.00    +0.000 A 
BRANCH  19  21
ATOM     21  O4  UNL     1     150.051 166.896 171.660  0.00  0.00    +0.000 OA
BRANCH  21  22
ATOM     22  C14 UNL     1     150.161 168.187 171.180  0.00  0.00    +0.000 A 
ATOM     23  C15 UNL     1     150.713 168.447 169.933  0.00  0.00    +0.000 A 
ATOM     24  C16 UNL     1     150.826 169.741 169.448  0.00  0.00    +0.000 A 
ATOM     25  C17 UNL     1     150.385 170.795 170.209  0.00  0.00    +0.000 A 
ATOM     26  C18 UNL     1     149.833 170.573 171.449  0.00  0.00    +0.000 A 
ATOM     27  C19 UNL     1     149.732 169.280 171.910  0.00  0.00    +0.000 A 
ENDBRANCH  21  22
ENDBRANCH  19  21
ENDBRANCH   2  15
TORSDOF 6
ENDMDL
MODEL 2
REMARK VINA RESULT:      -6.7      2.709      4.481
REMARK  Name = ./3D_structures\o80_MMV1579784_3D.pdb
REMARK  6 active torsions:
REMARK  status: ('A' for Active; 'I' for Inactive)
REMARK    1  A    between atoms: O1_1  and  C1_2
REMARK    2  A    between atoms: C1_2  and  C2_4
REMARK    3  A    between atoms: C7_9  and  N1_10
REMARK    4  A    between atoms: C8_11  and  C9_13
REMARK    5  A    between atoms: C13_17  and  O4_18
REMARK    6  A    between atoms: O4_18  and  C14_19
REMARK                            x       y       z     vdW  Elec       q    Type
REMARK                         _______ _______ _______ _____ _____    ______ ____
ROOT
ATOM      1  N1  UNL     1     146.415 164.857 166.926  0.00  0.00    +0.000 N 
ATOM      2  C8  UNL     1     146.753 165.031 168.271  0.00  0.00    +0.000 C 
ATOM      3  O3  UNL     1     145.891 165.284 169.133  0.00  0.00    +0.000 OA
ATOM      4  H6  UNL     1     147.250 164.660 166.295  0.00  0.00    +0.000 HD
ENDROOT
BRANCH   1  10
ATOM      5  C2  UNL     1     144.657 166.129 165.825  0.00  0.00    +0.000 A 
ATOM      6  C3  UNL     1     143.336 166.197 165.321  0.00  0.00    +0.000 A 
ATOM      7  C4  UNL     1     142.486 165.150 165.365  0.00  0.00    +0.000 A 
ATOM      8  C5  UNL     1     142.919 163.979 165.922  0.00  0.00    +0.000 A 
ATOM      9  C6  UNL     1     144.207 163.913 166.413  0.00  0.00    +0.000 A 
ATOM     10  C7  UNL     1     145.115 164.944 166.395  0.00  0.00    +0.000 A 
BRANCH   5  11
ATOM     11  C1  UNL     1     145.459 167.324 165.693  0.00  0.00    +0.000 C 
ATOM     12  O2  UNL     1     146.686 167.365 165.559  0.00  0.00    +0.000 OA
BRANCH  11  13
ATOM     13  O1  UNL     1     144.834 168.585 165.714  0.00  0.00    +0.000 OA
ATOM     14  H1  UNL     1     144.068 168.801 166.335  0.00  0.00    +0.000 HD
ENDBRANCH  11  13
ENDBRANCH   5  11
ENDBRANCH   1  10
BRANCH   2  15
ATOM     15  C9  UNL     1     148.142 164.926 168.752  0.00  0.00    +0.000 A 
ATOM     16  C10 UNL     1     148.416 164.681 170.066  0.00  0.00    +0.000 A 
ATOM     17  C11 UNL     1     149.746 164.585 170.464  0.00  0.00    +0.000 A 
ATOM     18  C12 UNL     1     150.767 164.731 169.569  0.00  0.00    +0.000 A 
ATOM     19  C13 UNL     1     150.512 164.978 168.246  0.00  0.00    +0.000 A 
ATOM     20  C20 UNL     1     149.190 165.068 167.872  0.00  0.00    +0.000 A 
BRANCH  19  21
ATOM     21  O4  UNL     1     151.545 165.125 167.341  0.00  0.00    +0.000 OA
BRANCH  21  22
ATOM     22  C14 UNL     1     151.743 164.171 166.362  0.00  0.00    +0.000 A 
ATOM     23  C15 UNL     1     151.776 162.817 166.670  0.00  0.00    +0.000 A 
ATOM     24  C16 UNL     1     151.975 161.858 165.690  0.00  0.00    +0.000 A 
ATOM     25  C17 UNL     1     152.145 162.243 164.383  0.00  0.00    +0.000 A 
ATOM     26  C18 UNL     1     152.118 163.575 164.043  0.00  0.00    +0.000 A 
ATOM     27  C19 UNL     1     151.918 164.510 165.033  0.00  0.00    +0.000 A 
ENDBRANCH  21  22
ENDBRANCH  19  21
ENDBRANCH   2  15
TORSDOF 6
ENDMDL
MODEL 3
REMARK VINA RESULT:      -6.4     13.101     15.483
REMARK  Name = ./3D_structures\o80_MMV1579784_3D.pdb
REMARK  6 active torsions:
REMARK  status: ('A' for Active; 'I' for Inactive)
REMARK    1  A    between atoms: O1_1  and  C1_2
REMARK    2  A    between atoms: C1_2  and  C2_4
REMARK    3  A    between atoms: C7_9  and  N1_10
REMARK    4  A    between atoms: C8_11  and  C9_13
REMARK    5  A    between atoms: C13_17  and  O4_18
REMARK    6  A    between atoms: O4_18  and  C14_19
REMARK                            x       y       z     vdW  Elec       q    Type
REMARK                         _______ _______ _______ _____ _____    ______ ____
ROOT
ATOM      1  N1  UNL     1     159.722 159.421 168.492  0.00  0.00    +0.000 N 
ATOM      2  C8  UNL     1     159.541 160.807 168.509  0.00  0.00    +0.000 C 
ATOM      3  O3  UNL     1     158.530 161.339 168.017  0.00  0.00    +0.000 OA
ATOM      4  H6  UNL     1     160.637 159.102 168.934  0.00  0.00    +0.000 HD
ENDROOT
BRANCH   1  10
ATOM      5  C2  UNL     1     157.814 157.928 168.711  0.00  0.00    +0.000 A 
ATOM      6  C3  UNL     1     156.940 156.975 168.135  0.00  0.00    +0.000 A 
ATOM      7  C4  UNL     1     157.042 156.580 166.848  0.00  0.00    +0.000 A 
ATOM      8  C5  UNL     1     158.029 157.122 166.074  0.00  0.00    +0.000 A 
ATOM      9  C6  UNL     1     158.881 158.051 166.636  0.00  0.00    +0.000 A 
ATOM     10  C7  UNL     1     158.826 158.490 167.937  0.00  0.00    +0.000 A 
BRANCH   5  11
ATOM     11  C1  UNL     1     157.575 158.266 170.096  0.00  0.00    +0.000 C 
ATOM     12  O2  UNL     1     158.412 158.249 171.004  0.00  0.00    +0.000 OA
BRANCH  11  13
ATOM     13  O1  UNL     1     156.285 158.658 170.501  0.00  0.00    +0.000 OA
ATOM     14  H1  UNL     1     155.475 158.555 169.907  0.00  0.00    +0.000 HD
ENDBRANCH  11  13
ENDBRANCH   5  11
ENDBRANCH   1  10
BRANCH   2  15
ATOM     15  C9  UNL     1     160.529 161.721 169.109  0.00  0.00    +0.000 A 
ATOM     16  C10 UNL     1     160.158 162.650 170.038  0.00  0.00    +0.000 A 
ATOM     17  C11 UNL     1     161.133 163.483 170.576  0.00  0.00    +0.000 A 
ATOM     18  C12 UNL     1     162.442 163.384 170.194  0.00  0.00    +0.000 A 
ATOM     19  C13 UNL     1     162.833 162.457 169.265  0.00  0.00    +0.000 A 
ATOM     20  C20 UNL     1     161.853 161.643 168.744  0.00  0.00    +0.000 A 
BRANCH  19  21
ATOM     21  O4  UNL     1     164.156 162.358 168.879  0.00  0.00    +0.000 OA
BRANCH  21  22
ATOM     22  C14 UNL     1     164.920 161.291 169.312  0.00  0.00    +0.000 A 
ATOM     23  C15 UNL     1     164.959 160.098 168.603  0.00  0.00    +0.000 A 
ATOM     24  C16 UNL     1     165.725 159.026 169.035  0.00  0.00    +0.000 A 
ATOM     25  C17 UNL     1     166.465 159.136 170.186  0.00  0.00    +0.000 A 
ATOM     26  C18 UNL     1     166.449 160.304 170.912  0.00  0.00    +0.000 A 
ATOM     27  C19 UNL     1     165.682 161.355 170.464  0.00  0.00    +0.000 A 
ENDBRANCH  21  22
ENDBRANCH  19  21
ENDBRANCH   2  15
TORSDOF 6
ENDMDL
MODEL 4
REMARK VINA RESULT:      -6.4      2.621      5.104
REMARK  Name = ./3D_structures\o80_MMV1579784_3D.pdb
REMARK  6 active torsions:
REMARK  status: ('A' for Active; 'I' for Inactive)
REMARK    1  A    between atoms: O1_1  and  C1_2
REMARK    2  A    between atoms: C1_2  and  C2_4
REMARK    3  A    between atoms: C7_9  and  N1_10
REMARK    4  A    between atoms: C8_11  and  C9_13
REMARK    5  A    between atoms: C13_17  and  O4_18
REMARK    6  A    between atoms: O4_18  and  C14_19
REMARK                            x       y       z     vdW  Elec       q    Type
REMARK                         _______ _______ _______ _____ _____    ______ ____
ROOT
ATOM      1  N1  UNL     1     146.250 164.690 167.030  0.00  0.00    +0.000 N 
ATOM      2  C8  UNL     1     146.525 164.797 168.396  0.00  0.00    +0.000 C 
ATOM      3  O3  UNL     1     145.635 165.075 169.221  0.00  0.00    +0.000 OA
ATOM      4  H6  UNL     1     147.105 164.463 166.436  0.00  0.00    +0.000 HD
ENDROOT
BRANCH   1  10
ATOM      5  C2  UNL     1     144.657 166.089 165.834  0.00  0.00    +0.000 A 
ATOM      6  C3  UNL     1     143.372 166.258 165.266  0.00  0.00    +0.000 A 
ATOM      7  C4  UNL     1     142.438 165.285 165.278  0.00  0.00    +0.000 A 
ATOM      8  C5  UNL     1     142.746 164.090 165.865  0.00  0.00    +0.000 A 
ATOM      9  C6  UNL     1     143.999 163.924 166.419  0.00  0.00    +0.000 A 
ATOM     10  C7  UNL     1     144.988 164.877 166.436  0.00  0.00    +0.000 A 
BRANCH   5  11
ATOM     11  C1  UNL     1     145.560 167.212 165.731  0.00  0.00    +0.000 C 
ATOM     12  O2  UNL     1     146.790 167.150 165.629  0.00  0.00    +0.000 OA
BRANCH  11  13
ATOM     13  O1  UNL     1     145.043 168.521 165.743  0.00  0.00    +0.000 OA
ATOM     14  H1  UNL     1     144.689 168.972 164.913  0.00  0.00    +0.000 HD
ENDBRANCH  11  13
ENDBRANCH   5  11
ENDBRANCH   1  10
BRANCH   2  15
ATOM     15  C9  UNL     1     147.877 164.589 168.944  0.00  0.00    +0.000 A 
ATOM     16  C10 UNL     1     148.272 165.202 170.098  0.00  0.00    +0.000 A 
ATOM     17  C11 UNL     1     149.558 164.965 170.573  0.00  0.00    +0.000 A 
ATOM     18  C12 UNL     1     150.419 164.137 169.909  0.00  0.00    +0.000 A 
ATOM     19  C13 UNL     1     150.040 163.513 168.750  0.00  0.00    +0.000 A 
ATOM     20  C20 UNL     1     148.764 163.760 168.297  0.00  0.00    +0.000 A 
BRANCH  19  21
ATOM     21  O4  UNL     1     150.911 162.677 168.080  0.00  0.00    +0.000 OA
BRANCH  21  22
ATOM     22  C14 UNL     1     151.156 161.406 168.565  0.00  0.00    +0.000 A 
ATOM     23  C15 UNL     1     150.143 160.644 169.133  0.00  0.00    +0.000 A 
ATOM     24  C16 UNL     1     150.386 159.370 169.620  0.00  0.00    +0.000 A 
ATOM     25  C17 UNL     1     151.650 158.840 169.546  0.00  0.00    +0.000 A 
ATOM     26  C18 UNL     1     152.676 159.568 168.990  0.00  0.00    +0.000 A 
ATOM     27  C19 UNL     1     152.412 160.831 168.512  0.00  0.00    +0.000 A 
ENDBRANCH  21  22
ENDBRANCH  19  21
ENDBRANCH   2  15
TORSDOF 6
ENDMDL
MODEL 5
REMARK VINA RESULT:      -6.3     12.719     16.339
REMARK  Name = ./3D_structures\o80_MMV1579784_3D.pdb
REMARK  6 active torsions:
REMARK  status: ('A' for Active; 'I' for Inactive)
REMARK    1  A    between atoms: O1_1  and  C1_2
REMARK    2  A    between atoms: C1_2  and  C2_4
REMARK    3  A    between atoms: C7_9  and  N1_10
REMARK    4  A    between atoms: C8_11  and  C9_13
REMARK    5  A    between atoms: C13_17  and  O4_18
REMARK    6  A    between atoms: O4_18  and  C14_19
REMARK                            x       y       z     vdW  Elec       q    Type
REMARK                         _______ _______ _______ _____ _____    ______ ____
ROOT
ATOM      1  N1  UNL     1     157.449 156.877 167.661  0.00  0.00    +0.000 N 
ATOM      2  C8  UNL     1     157.880 157.460 166.466  0.00  0.00    +0.000 C 
ATOM      3  O3  UNL     1     158.015 158.692 166.352  0.00  0.00    +0.000 OA
ATOM      4  H6  UNL     1     157.364 155.816 167.616  0.00  0.00    +0.000 HD
ENDROOT
BRANCH   1  10
ATOM      5  C2  UNL     1     155.803 157.907 169.127  0.00  0.00    +0.000 A 
ATOM      6  C3  UNL     1     155.506 158.634 170.305  0.00  0.00    +0.000 A 
ATOM      7  C4  UNL     1     156.459 159.026 171.176  0.00  0.00    +0.000 A 
ATOM      8  C5  UNL     1     157.761 158.711 170.907  0.00  0.00    +0.000 A 
ATOM      9  C6  UNL     1     158.051 158.002 169.759  0.00  0.00    +0.000 A 
ATOM     10  C7  UNL     1     157.125 157.577 168.837  0.00  0.00    +0.000 A 
BRANCH   5  11
ATOM     11  C1  UNL     1     154.679 157.540 168.297  0.00  0.00    +0.000 C 
ATOM     12  O2  UNL     1     154.484 157.905 167.133  0.00  0.00    +0.000 OA
BRANCH  11  13
ATOM     13  O1  UNL     1     153.685 156.688 168.813  0.00  0.00    +0.000 OA
ATOM     14  H1  UNL     1     152.889 157.032 169.330  0.00  0.00    +0.000 HD
ENDBRANCH  11  13
ENDBRANCH   5  11
ENDBRANCH   1  10
BRANCH   2  15
ATOM     15  C9  UNL     1     158.201 156.657 165.272  0.00  0.00    +0.000 A 
ATOM     16  C10 UNL     1     158.061 157.175 164.016  0.00  0.00    +0.000 A 
ATOM     17  C11 UNL     1     158.383 156.375 162.925  0.00  0.00    +0.000 A 
ATOM     18  C12 UNL     1     158.833 155.096 163.090  0.00  0.00    +0.000 A 
ATOM     19  C13 UNL     1     158.979 154.559 164.342  0.00  0.00    +0.000 A 
ATOM     20  C20 UNL     1     158.655 155.366 165.409  0.00  0.00    +0.000 A 
BRANCH  19  21
ATOM     21  O4  UNL     1     159.433 153.265 164.508  0.00  0.00    +0.000 OA
BRANCH  21  22
ATOM     22  C14 UNL     1     158.541 152.212 164.461  0.00  0.00    +0.000 A 
ATOM     23  C15 UNL     1     157.275 152.363 163.911  0.00  0.00    +0.000 A 
ATOM     24  C16 UNL     1     156.378 151.308 163.863  0.00  0.00    +0.000 A 
ATOM     25  C17 UNL     1     156.737 150.082 164.367  0.00  0.00    +0.000 A 
ATOM     26  C18 UNL     1     157.984 149.898 164.919  0.00  0.00    +0.000 A 
ATOM     27  C19 UNL     1     158.858 150.960 164.956  0.00  0.00    +0.000 A 
ENDBRANCH  21  22
ENDBRANCH  19  21
ENDBRANCH   2  15
TORSDOF 6
ENDMDL
MODEL 6
REMARK VINA RESULT:      -6.3      8.402     12.099
REMARK  Name = ./3D_structures\o80_MMV1579784_3D.pdb
REMARK  6 active torsions:
REMARK  status: ('A' for Active; 'I' for Inactive)
REMARK    1  A    between atoms: O1_1  and  C1_2
REMARK    2  A    between atoms: C1_2  and  C2_4
REMARK    3  A    between atoms: C7_9  and  N1_10
REMARK    4  A    between atoms: C8_11  and  C9_13
REMARK    5  A    between atoms: C13_17  and  O4_18
REMARK    6  A    between atoms: O4_18  and  C14_19
REMARK                            x       y       z     vdW  Elec       q    Type
REMARK                         _______ _______ _______ _____ _____    ______ ____
ROOT
ATOM      1  N1  UNL     1     156.762 159.411 169.717  0.00  0.00    +0.000 N 
ATOM      2  C8  UNL     1     156.911 159.197 171.090  0.00  0.00    +0.000 C 
ATOM      3  O3  UNL     1     157.723 158.367 171.537  0.00  0.00    +0.000 OA
ATOM      4  H6  UNL     1     156.022 160.138 169.473  0.00  0.00    +0.000 HD
ENDROOT
BRANCH   1  10
ATOM      5  C2  UNL     1     156.892 157.705 167.987  0.00  0.00    +0.000 A 
ATOM      6  C3  UNL     1     157.643 157.034 166.992  0.00  0.00    +0.000 A 
ATOM      7  C4  UNL     1     158.919 157.360 166.702  0.00  0.00    +0.000 A 
ATOM      8  C5  UNL     1     159.510 158.378 167.398  0.00  0.00    +0.000 A 
ATOM      9  C6  UNL     1     158.778 159.032 168.368  0.00  0.00    +0.000 A 
ATOM     10  C7  UNL     1     157.478 158.744 168.707  0.00  0.00    +0.000 A 
BRANCH   5  11
ATOM     11  C1  UNL     1     155.531 157.259 168.177  0.00  0.00    +0.000 C 
ATOM     12  O2  UNL     1     154.653 157.213 167.309  0.00  0.00    +0.000 OA
BRANCH  11  13
ATOM     13  O1  UNL     1     155.114 156.824 169.449  0.00  0.00    +0.000 OA
ATOM     14  H1  UNL     1     154.145 156.658 169.675  0.00  0.00    +0.000 HD
ENDBRANCH  11  13
ENDBRANCH   5  11
ENDBRANCH   1  10
BRANCH   2  15
ATOM     15  C9  UNL     1     156.121 159.936 172.091  0.00  0.00    +0.000 A 
ATOM     16  C10 UNL     1     156.719 160.796 172.966  0.00  0.00    +0.000 A 
ATOM     17  C11 UNL     1     155.924 161.472 173.886  0.00  0.00    +0.000 A 
ATOM     18  C12 UNL     1     154.570 161.291 173.924  0.00  0.00    +0.000 A 
ATOM     19  C13 UNL     1     153.952 160.432 173.053  0.00  0.00    +0.000 A 
ATOM     20  C20 UNL     1     154.756 159.773 172.151  0.00  0.00    +0.000 A 
BRANCH  19  21
ATOM     21  O4  UNL     1     152.584 160.249 173.092  0.00  0.00    +0.000 OA
BRANCH  21  22
ATOM     22  C14 UNL     1     151.858 160.237 171.917  0.00  0.00    +0.000 A 
ATOM     23  C15 UNL     1     151.268 159.071 171.446  0.00  0.00    +0.000 A 
ATOM     24  C16 UNL     1     150.539 159.056 170.267  0.00  0.00    +0.000 A 
ATOM     25  C17 UNL     1     150.390 160.212 169.542  0.00  0.00    +0.000 A 
ATOM     26  C18 UNL     1     150.961 161.384 169.980  0.00  0.00    +0.000 A 
ATOM     27  C19 UNL     1     151.681 161.376 171.153  0.00  0.00    +0.000 A 
ENDBRANCH  21  22
ENDBRANCH  19  21
ENDBRANCH   2  15
TORSDOF 6
ENDMDL
MODEL 7
REMARK VINA RESULT:      -6.2     11.736     14.617
REMARK  Name = ./3D_structures\o80_MMV1579784_3D.pdb
REMARK  6 active torsions:
REMARK  status: ('A' for Active; 'I' for Inactive)
REMARK    1  A    between atoms: O1_1  and  C1_2
REMARK    2  A    between atoms: C1_2  and  C2_4
REMARK    3  A    between atoms: C7_9  and  N1_10
REMARK    4  A    between atoms: C8_11  and  C9_13
REMARK    5  A    between atoms: C13_17  and  O4_18
REMARK    6  A    between atoms: O4_18  and  C14_19
REMARK                            x       y       z     vdW  Elec       q    Type
REMARK                         _______ _______ _______ _____ _____    ______ ____
ROOT
ATOM      1  N1  UNL     1     156.827 159.515 170.160  0.00  0.00    +0.000 N 
ATOM      2  C8  UNL     1     157.824 158.563 169.923  0.00  0.00    +0.000 C 
ATOM      3  O3  UNL     1     158.565 158.153 170.835  0.00  0.00    +0.000 OA
ATOM      4  H6  UNL     1     156.276 159.787 169.290  0.00  0.00    +0.000 HD
ENDROOT
BRANCH   1  10
ATOM      5  C2  UNL     1     157.088 161.346 171.740  0.00  0.00    +0.000 A 
ATOM      6  C3  UNL     1     156.811 161.909 173.010  0.00  0.00    +0.000 A 
ATOM      7  C4  UNL     1     156.033 161.293 173.923  0.00  0.00    +0.000 A 
ATOM      8  C5  UNL     1     155.494 160.077 173.610  0.00  0.00    +0.000 A 
ATOM      9  C6  UNL     1     155.764 159.528 172.373  0.00  0.00    +0.000 A 
ATOM     10  C7  UNL     1     156.547 160.108 171.405  0.00  0.00    +0.000 A 
BRANCH   5  11
ATOM     11  C1  UNL     1     157.924 162.128 170.858  0.00  0.00    +0.000 C 
ATOM     12  O2  UNL     1     158.648 161.685 169.961  0.00  0.00    +0.000 OA
BRANCH  11  13
ATOM     13  O1  UNL     1     157.951 163.529 170.990  0.00  0.00    +0.000 OA
ATOM     14  H1  UNL     1     158.426 163.994 171.750  0.00  0.00    +0.000 HD
ENDBRANCH  11  13
ENDBRANCH   5  11
ENDBRANCH   1  10
BRANCH   2  15
ATOM     15  C9  UNL     1     158.058 157.988 168.587  0.00  0.00    +0.000 A 
ATOM     16  C10 UNL     1     157.183 157.094 168.041  0.00  0.00    +0.000 A 
ATOM     17  C11 UNL     1     157.450 156.587 166.774  0.00  0.00    +0.000 A 
ATOM     18  C12 UNL     1     158.561 156.968 166.076  0.00  0.00    +0.000 A 
ATOM     19  C13 UNL     1     159.450 157.865 166.606  0.00  0.00    +0.000 A 
ATOM     20  C20 UNL     1     159.168 158.355 167.862  0.00  0.00    +0.000 A 
BRANCH  19  21
ATOM     21  O4  UNL     1     160.573 158.250 165.900  0.00  0.00    +0.000 OA
BRANCH  21  22
ATOM     22  C14 UNL     1     161.788 158.361 166.548  0.00  0.00    +0.000 A 
ATOM     23  C15 UNL     1     162.373 159.599 166.777  0.00  0.00    +0.000 A 
ATOM     24  C16 UNL     1     163.592 159.713 167.427  0.00  0.00    +0.000 A 
ATOM     25  C17 UNL     1     164.244 158.585 167.858  0.00  0.00    +0.000 A 
ATOM     26  C18 UNL     1     163.693 157.342 167.648  0.00  0.00    +0.000 A 
ATOM     27  C19 UNL     1     162.481 157.253 167.001  0.00  0.00    +0.000 A 
ENDBRANCH  21  22
ENDBRANCH  19  21
ENDBRANCH   2  15
TORSDOF 6
ENDMDL
MODEL 8
REMARK VINA RESULT:      -6.2      5.912      8.564
REMARK  Name = ./3D_structures\o80_MMV1579784_3D.pdb
REMARK  6 active torsions:
REMARK  status: ('A' for Active; 'I' for Inactive)
REMARK    1  A    between atoms: O1_1  and  C1_2
REMARK    2  A    between atoms: C1_2  and  C2_4
REMARK    3  A    between atoms: C7_9  and  N1_10
REMARK    4  A    between atoms: C8_11  and  C9_13
REMARK    5  A    between atoms: C13_17  and  O4_18
REMARK    6  A    between atoms: O4_18  and  C14_19
REMARK                            x       y       z     vdW  Elec       q    Type
REMARK                         _______ _______ _______ _____ _____    ______ ____
ROOT
ATOM      1  N1  UNL     1     150.103 162.405 168.362  0.00  0.00    +0.000 N 
ATOM      2  C8  UNL     1     150.715 161.283 168.928  0.00  0.00    +0.000 C 
ATOM      3  O3  UNL     1     150.353 160.827 170.028  0.00  0.00    +0.000 OA
ATOM      4  H6  UNL     1     150.521 162.696 167.426  0.00  0.00    +0.000 HD
ENDROOT
BRANCH   1  10
ATOM      5  C2  UNL     1     147.723 162.761 168.719  0.00  0.00    +0.000 A 
ATOM      6  C3  UNL     1     146.678 163.526 169.291  0.00  0.00    +0.000 A 
ATOM      7  C4  UNL     1     146.908 164.616 170.052  0.00  0.00    +0.000 A 
ATOM      8  C5  UNL     1     148.201 164.996 170.277  0.00  0.00    +0.000 A 
ATOM      9  C6  UNL     1     149.220 164.250 169.720  0.00  0.00    +0.000 A 
ATOM     10  C7  UNL     1     149.047 163.134 168.938  0.00  0.00    +0.000 A 
BRANCH   5  11
ATOM     11  C1  UNL     1     147.327 161.609 167.941  0.00  0.00    +0.000 C 
ATOM     12  O2  UNL     1     146.725 161.632 166.863  0.00  0.00    +0.000 OA
BRANCH  11  13
ATOM     13  O1  UNL     1     147.631 160.318 168.410  0.00  0.00    +0.000 OA
ATOM     14  H1  UNL     1     146.923 159.682 168.748  0.00  0.00    +0.000 HD
ENDBRANCH  11  13
ENDBRANCH   5  11
ENDBRANCH   1  10
BRANCH   2  15
ATOM     15  C9  UNL     1     151.821 160.572 168.262  0.00  0.00    +0.000 A 
ATOM     16  C10 UNL     1     152.211 160.904 166.997  0.00  0.00    +0.000 A 
ATOM     17  C11 UNL     1     153.265 160.204 166.418  0.00  0.00    +0.000 A 
ATOM     18  C12 UNL     1     153.908 159.204 167.091  0.00  0.00    +0.000 A 
ATOM     19  C13 UNL     1     153.531 158.857 168.362  0.00  0.00    +0.000 A 
ATOM     20  C20 UNL     1     152.486 159.561 168.916  0.00  0.00    +0.000 A 
BRANCH  19  21
ATOM     21  O4  UNL     1     154.181 157.845 169.041  0.00  0.00    +0.000 OA
BRANCH  21  22
ATOM     22  C14 UNL     1     155.427 158.076 169.591  0.00  0.00    +0.000 A 
ATOM     23  C15 UNL     1     156.589 157.749 168.905  0.00  0.00    +0.000 A 
ATOM     24  C16 UNL     1     157.841 157.980 169.454  0.00  0.00    +0.000 A 
ATOM     25  C17 UNL     1     157.945 158.542 170.702  0.00  0.00    +0.000 A 
ATOM     26  C18 UNL     1     156.814 158.877 171.409  0.00  0.00    +0.000 A 
ATOM     27  C19 UNL     1     155.582 158.640 170.844  0.00  0.00    +0.000 A 
ENDBRANCH  21  22
ENDBRANCH  19  21
ENDBRANCH   2  15
TORSDOF 6
ENDMDL
MODEL 9
REMARK VINA RESULT:      -6.1      9.051     13.155
REMARK  Name = ./3D_structures\o80_MMV1579784_3D.pdb
REMARK  6 active torsions:
REMARK  status: ('A' for Active; 'I' for Inactive)
REMARK    1  A    between atoms: O1_1  and  C1_2
REMARK    2  A    between atoms: C1_2  and  C2_4
REMARK    3  A    between atoms: C7_9  and  N1_10
REMARK    4  A    between atoms: C8_11  and  C9_13
REMARK    5  A    between atoms: C13_17  and  O4_18
REMARK    6  A    between atoms: O4_18  and  C14_19
REMARK                            x       y       z     vdW  Elec       q    Type
REMARK                         _______ _______ _______ _____ _____    ______ ____
ROOT
ATOM      1  N1  UNL     1     155.194 159.069 169.064  0.00  0.00    +0.000 N 
ATOM      2  C8  UNL     1     154.155 158.147 168.907  0.00  0.00    +0.000 C 
ATOM      3  O3  UNL     1     154.358 157.004 168.458  0.00  0.00    +0.000 OA
ATOM      4  H6  UNL     1     154.878 160.013 169.444  0.00  0.00    +0.000 HD
ENDROOT
BRANCH   1  10
ATOM      5  C2  UNL     1     157.490 158.649 169.752  0.00  0.00    +0.000 A 
ATOM      6  C3  UNL     1     158.846 158.440 169.406  0.00  0.00    +0.000 A 
ATOM      7  C4  UNL     1     159.273 158.410 168.126  0.00  0.00    +0.000 A 
ATOM      8  C5  UNL     1     158.359 158.591 167.127  0.00  0.00    +0.000 A 
ATOM      9  C6  UNL     1     157.036 158.795 167.465  0.00  0.00    +0.000 A 
ATOM     10  C7  UNL     1     156.544 158.835 168.747  0.00  0.00    +0.000 A 
BRANCH   5  11
ATOM     11  C1  UNL     1     157.176 158.639 171.163  0.00  0.00    +0.000 C 
ATOM     12  O2  UNL     1     157.409 159.548 171.966  0.00  0.00    +0.000 OA
BRANCH  11  13
ATOM     13  O1  UNL     1     156.547 157.513 171.725  0.00  0.00    +0.000 OA
ATOM     14  H1  UNL     1     155.825 157.588 172.427  0.00  0.00    +0.000 HD
ENDBRANCH  11  13
ENDBRANCH   5  11
ENDBRANCH   1  10
BRANCH   2  15
ATOM     15  C9  UNL     1     152.761 158.467 169.261  0.00  0.00    +0.000 A 
ATOM     16  C10 UNL     1     152.137 159.567 168.745  0.00  0.00    +0.000 A 
ATOM     17  C11 UNL     1     150.819 159.818 169.108  0.00  0.00    +0.000 A 
ATOM     18  C12 UNL     1     150.147 158.991 169.963  0.00  0.00    +0.000 A 
ATOM     19  C13 UNL     1     150.756 157.883 170.491  0.00  0.00    +0.000 A 
ATOM     20  C20 UNL     1     152.061 157.651 170.119  0.00  0.00    +0.000 A 
BRANCH  19  21
ATOM     21  O4  UNL     1     150.076 157.047 171.356  0.00  0.00    +0.000 OA
BRANCH  21  22
ATOM     22  C14 UNL     1     149.562 155.851 170.894  0.00  0.00    +0.000 A 
ATOM     23  C15 UNL     1     150.292 154.673 170.975  0.00  0.00    +0.000 A 
ATOM     24  C16 UNL     1     149.778 153.472 170.513  0.00  0.00    +0.000 A 
ATOM     25  C17 UNL     1     148.521 153.435 169.961  0.00  0.00    +0.000 A 
ATOM     26  C18 UNL     1     147.771 154.583 169.865  0.00  0.00    +0.000 A 
ATOM     27  C19 UNL     1     148.302 155.765 170.331  0.00  0.00    +0.000 A 
ENDBRANCH  21  22
ENDBRANCH  19  21
ENDBRANCH   2  15
TORSDOF 6
ENDMDL
