MODEL 1
REMARK VINA RESULT:      -5.4      0.000      0.000
REMARK  Name = ./3D_structures\o9_MMV002731_3D.pdb
REMARK  3 active torsions:
REMARK  status: ('A' for Active; 'I' for Inactive)
REMARK    1  A    between atoms: N1_3  and  O2_4
REMARK    2  A    between atoms: C2_5  and  C7_10
REMARK    3  A    between atoms: C4_7  and  C6_9
REMARK                            x       y       z     vdW  Elec       q    Type
REMARK                         _______ _______ _______ _____ _____    ______ ____
ROOT
ATOM      1  O1  UNL     1     155.924 156.338 166.111  0.00  0.00    +0.000 OA
ATOM      2  C1  UNL     1     156.463 156.961 167.062  0.00  0.00    +0.000 A 
ATOM      3  N1  UNL     1     155.813 157.268 168.199  0.00  0.00    +0.000 N 
ATOM      4  C2  UNL     1     156.367 157.932 169.229  0.00  0.00    +0.000 A 
ATOM      5  C3  UNL     1     157.696 158.302 169.060  0.00  0.00    +0.000 A 
ATOM      6  C4  UNL     1     158.416 158.020 167.928  0.00  0.00    +0.000 A 
ATOM      7  C5  UNL     1     157.791 157.335 166.904  0.00  0.00    +0.000 A 
ATOM      8  C6  UNL     1     159.830 158.408 167.735  0.00  0.00    +0.000 C 
ENDROOT
BRANCH   4   9
ATOM      9  C7  UNL     1     155.598 158.234 170.440  0.00  0.00    +0.000 C 
ATOM     10  C8  UNL     1     154.835 159.525 170.283  0.00  0.00    +0.000 C 
ATOM     11  C9  UNL     1     154.201 159.995 171.548  0.00  0.00    +0.000 C 
ATOM     12  C10 UNL     1     155.132 159.957 172.732  0.00  0.00    +0.000 C 
ATOM     13  C11 UNL     1     156.540 159.585 172.327  0.00  0.00    +0.000 C 
ATOM     14  C12 UNL     1     156.480 158.228 171.672  0.00  0.00    +0.000 C 
ENDBRANCH   4   9
BRANCH   3  15
ATOM     15  O2  UNL     1     154.496 156.862 168.281  0.00  0.00    +0.000 OA
ATOM     16  H1  UNL     1     154.303 155.884 168.092  0.00  0.00    +0.000 HD
ENDBRANCH   3  15
TORSDOF 2
ENDMDL
MODEL 2
REMARK VINA RESULT:      -5.3     15.147     16.012
REMARK  Name = ./3D_structures\o9_MMV002731_3D.pdb
REMARK  3 active torsions:
REMARK  status: ('A' for Active; 'I' for Inactive)
REMARK    1  A    between atoms: N1_3  and  O2_4
REMARK    2  A    between atoms: C2_5  and  C7_10
REMARK    3  A    between atoms: C4_7  and  C6_9
REMARK                            x       y       z     vdW  Elec       q    Type
REMARK                         _______ _______ _______ _____ _____    ______ ____
ROOT
ATOM      1  O1  UNL     1     162.809 140.237 168.882  0.00  0.00    +0.000 OA
ATOM      2  C1  UNL     1     162.353 141.391 169.094  0.00  0.00    +0.000 A 
ATOM      3  N1  UNL     1     162.696 142.128 170.166  0.00  0.00    +0.000 N 
ATOM      4  C2  UNL     1     162.223 143.363 170.414  0.00  0.00    +0.000 A 
ATOM      5  C3  UNL     1     161.329 143.863 169.475  0.00  0.00    +0.000 A 
ATOM      6  C4  UNL     1     160.939 143.164 168.362  0.00  0.00    +0.000 A 
ATOM      7  C5  UNL     1     161.459 141.901 168.163  0.00  0.00    +0.000 A 
ATOM      8  C6  UNL     1     159.988 143.685 167.356  0.00  0.00    +0.000 C 
ENDROOT
BRANCH   4   9
ATOM      9  C7  UNL     1     162.640 144.111 171.603  0.00  0.00    +0.000 C 
ATOM     10  C8  UNL     1     161.626 143.967 172.710  0.00  0.00    +0.000 C 
ATOM     11  C9  UNL     1     161.884 144.868 173.870  0.00  0.00    +0.000 C 
ATOM     12  C10 UNL     1     162.174 146.290 173.468  0.00  0.00    +0.000 C 
ATOM     13  C11 UNL     1     161.993 146.502 171.982  0.00  0.00    +0.000 C 
ATOM     14  C12 UNL     1     162.934 145.560 171.272  0.00  0.00    +0.000 C 
ENDBRANCH   4   9
BRANCH   3  15
ATOM     15  O2  UNL     1     163.590 141.553 171.046  0.00  0.00    +0.000 OA
ATOM     16  H1  UNL     1     164.441 142.071 171.244  0.00  0.00    +0.000 HD
ENDBRANCH   3  15
TORSDOF 2
ENDMDL
MODEL 3
REMARK VINA RESULT:      -5.1     14.006     15.404
REMARK  Name = ./3D_structures\o9_MMV002731_3D.pdb
REMARK  3 active torsions:
REMARK  status: ('A' for Active; 'I' for Inactive)
REMARK    1  A    between atoms: N1_3  and  O2_4
REMARK    2  A    between atoms: C2_5  and  C7_10
REMARK    3  A    between atoms: C4_7  and  C6_9
REMARK                            x       y       z     vdW  Elec       q    Type
REMARK                         _______ _______ _______ _____ _____    ______ ____
ROOT
ATOM      1  O1  UNL     1     162.102 145.031 173.910  0.00  0.00    +0.000 OA
ATOM      2  C1  UNL     1     161.827 145.272 172.706  0.00  0.00    +0.000 A 
ATOM      3  N1  UNL     1     161.494 144.312 171.825  0.00  0.00    +0.000 N 
ATOM      4  C2  UNL     1     161.196 144.544 170.535  0.00  0.00    +0.000 A 
ATOM      5  C3  UNL     1     161.248 145.874 170.136  0.00  0.00    +0.000 A 
ATOM      6  C4  UNL     1     161.579 146.900 170.983  0.00  0.00    +0.000 A 
ATOM      7  C5  UNL     1     161.876 146.598 172.297  0.00  0.00    +0.000 A 
ATOM      8  C6  UNL     1     161.639 148.319 170.572  0.00  0.00    +0.000 C 
ENDROOT
BRANCH   4   9
ATOM      9  C7  UNL     1     160.841 143.449 169.628  0.00  0.00    +0.000 C 
ATOM     10  C8  UNL     1     162.078 142.794 169.068  0.00  0.00    +0.000 C 
ATOM     11  C9  UNL     1     161.790 141.813 167.982  0.00  0.00    +0.000 C 
ATOM     12  C10 UNL     1     160.833 142.338 166.943  0.00  0.00    +0.000 C 
ATOM     13  C11 UNL     1     160.501 143.794 167.170  0.00  0.00    +0.000 C 
ATOM     14  C12 UNL     1     159.890 143.912 168.543  0.00  0.00    +0.000 C 
ENDBRANCH   4   9
BRANCH   3  15
ATOM     15  O2  UNL     1     161.467 143.019 172.307  0.00  0.00    +0.000 OA
ATOM     16  H1  UNL     1     160.925 142.852 173.150  0.00  0.00    +0.000 HD
ENDBRANCH   3  15
TORSDOF 2
ENDMDL
MODEL 4
REMARK VINA RESULT:      -5.1     12.730     14.418
REMARK  Name = ./3D_structures\o9_MMV002731_3D.pdb
REMARK  3 active torsions:
REMARK  status: ('A' for Active; 'I' for Inactive)
REMARK    1  A    between atoms: N1_3  and  O2_4
REMARK    2  A    between atoms: C2_5  and  C7_10
REMARK    3  A    between atoms: C4_7  and  C6_9
REMARK                            x       y       z     vdW  Elec       q    Type
REMARK                         _______ _______ _______ _____ _____    ______ ____
ROOT
ATOM      1  O1  UNL     1     144.965 168.361 165.701  0.00  0.00    +0.000 OA
ATOM      2  C1  UNL     1     145.213 167.131 165.798  0.00  0.00    +0.000 A 
ATOM      3  N1  UNL     1     144.261 166.184 165.728  0.00  0.00    +0.000 N 
ATOM      4  C2  UNL     1     144.501 164.865 165.828  0.00  0.00    +0.000 A 
ATOM      5  C3  UNL     1     145.832 164.509 166.014  0.00  0.00    +0.000 A 
ATOM      6  C4  UNL     1     146.849 165.424 166.093  0.00  0.00    +0.000 A 
ATOM      7  C5  UNL     1     146.539 166.765 165.983  0.00  0.00    +0.000 A 
ATOM      8  C6  UNL     1     148.269 165.058 166.290  0.00  0.00    +0.000 C 
ENDROOT
BRANCH   4   9
ATOM      9  C7  UNL     1     143.414 163.885 165.743  0.00  0.00    +0.000 C 
ATOM     10  C8  UNL     1     143.182 163.224 167.078  0.00  0.00    +0.000 C 
ATOM     11  C9  UNL     1     142.235 162.074 167.013  0.00  0.00    +0.000 C 
ATOM     12  C10 UNL     1     142.531 161.121 165.885  0.00  0.00    +0.000 C 
ATOM     13  C11 UNL     1     143.812 161.480 165.168  0.00  0.00    +0.000 C 
ATOM     14  C12 UNL     1     143.656 162.882 164.635  0.00  0.00    +0.000 C 
ENDBRANCH   4   9
BRANCH   3  15
ATOM     15  O2  UNL     1     142.966 166.627 165.542  0.00  0.00    +0.000 OA
ATOM     16  H1  UNL     1     142.751 167.567 165.861  0.00  0.00    +0.000 HD
ENDBRANCH   3  15
TORSDOF 2
ENDMDL
MODEL 5
REMARK VINA RESULT:      -5.0      2.676      3.667
REMARK  Name = ./3D_structures\o9_MMV002731_3D.pdb
REMARK  3 active torsions:
REMARK  status: ('A' for Active; 'I' for Inactive)
REMARK    1  A    between atoms: N1_3  and  O2_4
REMARK    2  A    between atoms: C2_5  and  C7_10
REMARK    3  A    between atoms: C4_7  and  C6_9
REMARK                            x       y       z     vdW  Elec       q    Type
REMARK                         _______ _______ _______ _____ _____    ______ ____
ROOT
ATOM      1  O1  UNL     1     155.845 156.798 166.609  0.00  0.00    +0.000 OA
ATOM      2  C1  UNL     1     155.012 157.667 166.975  0.00  0.00    +0.000 A 
ATOM      3  N1  UNL     1     154.471 157.690 168.206  0.00  0.00    +0.000 N 
ATOM      4  C2  UNL     1     153.580 158.608 168.621  0.00  0.00    +0.000 A 
ATOM      5  C3  UNL     1     153.228 159.570 167.683  0.00  0.00    +0.000 A 
ATOM      6  C4  UNL     1     153.743 159.604 166.413  0.00  0.00    +0.000 A 
ATOM      7  C5  UNL     1     154.654 158.634 166.045  0.00  0.00    +0.000 A 
ATOM      8  C6  UNL     1     153.377 160.623 165.404  0.00  0.00    +0.000 C 
ENDROOT
BRANCH   4   9
ATOM      9  C7  UNL     1     153.030 158.573 169.979  0.00  0.00    +0.000 C 
ATOM     10  C8  UNL     1     151.523 158.627 169.949  0.00  0.00    +0.000 C 
ATOM     11  C9  UNL     1     150.910 158.806 171.297  0.00  0.00    +0.000 C 
ATOM     12  C10 UNL     1     151.560 159.895 172.108  0.00  0.00    +0.000 C 
ATOM     13  C11 UNL     1     152.593 160.653 171.306  0.00  0.00    +0.000 C 
ATOM     14  C12 UNL     1     153.631 159.658 170.849  0.00  0.00    +0.000 C 
ENDBRANCH   4   9
BRANCH   3  15
ATOM     15  O2  UNL     1     154.877 156.696 169.074  0.00  0.00    +0.000 OA
ATOM     16  H1  UNL     1     155.391 155.916 168.674  0.00  0.00    +0.000 HD
ENDBRANCH   3  15
TORSDOF 2
ENDMDL
MODEL 6
REMARK VINA RESULT:      -5.0      2.210      5.839
REMARK  Name = ./3D_structures\o9_MMV002731_3D.pdb
REMARK  3 active torsions:
REMARK  status: ('A' for Active; 'I' for Inactive)
REMARK    1  A    between atoms: N1_3  and  O2_4
REMARK    2  A    between atoms: C2_5  and  C7_10
REMARK    3  A    between atoms: C4_7  and  C6_9
REMARK                            x       y       z     vdW  Elec       q    Type
REMARK                         _______ _______ _______ _____ _____    ______ ____
ROOT
ATOM      1  O1  UNL     1     154.397 157.134 167.887  0.00  0.00    +0.000 OA
ATOM      2  C1  UNL     1     155.645 157.257 167.781  0.00  0.00    +0.000 A 
ATOM      3  N1  UNL     1     156.322 156.926 166.668  0.00  0.00    +0.000 N 
ATOM      4  C2  UNL     1     157.654 157.048 166.531  0.00  0.00    +0.000 A 
ATOM      5  C3  UNL     1     158.327 157.553 167.637  0.00  0.00    +0.000 A 
ATOM      6  C4  UNL     1     157.698 157.911 168.800  0.00  0.00    +0.000 A 
ATOM      7  C5  UNL     1     156.327 157.762 168.880  0.00  0.00    +0.000 A 
ATOM      8  C6  UNL     1     158.402 158.450 169.984  0.00  0.00    +0.000 C 
ENDROOT
BRANCH   4   9
ATOM      9  C7  UNL     1     158.329 156.667 165.287  0.00  0.00    +0.000 C 
ATOM     10  C8  UNL     1     158.617 155.187 165.265  0.00  0.00    +0.000 C 
ATOM     11  C9  UNL     1     159.484 154.770 164.126  0.00  0.00    +0.000 C 
ATOM     12  C10 UNL     1     160.695 155.647 163.945  0.00  0.00    +0.000 C 
ATOM     13  C11 UNL     1     160.823 156.663 165.056  0.00  0.00    +0.000 C 
ATOM     14  C12 UNL     1     159.570 157.502 165.050  0.00  0.00    +0.000 C 
ENDBRANCH   4   9
BRANCH   3  15
ATOM     15  O2  UNL     1     155.573 156.431 165.618  0.00  0.00    +0.000 OA
ATOM     16  H1  UNL     1     154.608 156.187 165.816  0.00  0.00    +0.000 HD
ENDBRANCH   3  15
TORSDOF 2
ENDMDL
MODEL 7
REMARK VINA RESULT:      -4.9     10.534     12.501
REMARK  Name = ./3D_structures\o9_MMV002731_3D.pdb
REMARK  3 active torsions:
REMARK  status: ('A' for Active; 'I' for Inactive)
REMARK    1  A    between atoms: N1_3  and  O2_4
REMARK    2  A    between atoms: C2_5  and  C7_10
REMARK    3  A    between atoms: C4_7  and  C6_9
REMARK                            x       y       z     vdW  Elec       q    Type
REMARK                         _______ _______ _______ _____ _____    ______ ____
ROOT
ATOM      1  O1  UNL     1     148.348 165.093 170.816  0.00  0.00    +0.000 OA
ATOM      2  C1  UNL     1     147.917 164.480 169.806  0.00  0.00    +0.000 A 
ATOM      3  N1  UNL     1     146.690 164.683 169.294  0.00  0.00    +0.000 N 
ATOM      4  C2  UNL     1     146.207 164.041 168.216  0.00  0.00    +0.000 A 
ATOM      5  C3  UNL     1     147.068 163.121 167.629  0.00  0.00    +0.000 A 
ATOM      6  C4  UNL     1     148.330 162.868 168.100  0.00  0.00    +0.000 A 
ATOM      7  C5  UNL     1     148.769 163.559 169.211  0.00  0.00    +0.000 A 
ATOM      8  C6  UNL     1     149.255 161.891 167.485  0.00  0.00    +0.000 C 
ENDROOT
BRANCH   4   9
ATOM      9  C7  UNL     1     144.858 164.312 167.711  0.00  0.00    +0.000 C 
ATOM     10  C8  UNL     1     144.013 163.063 167.742  0.00  0.00    +0.000 C 
ATOM     11  C9  UNL     1     142.701 163.219 167.051  0.00  0.00    +0.000 C 
ATOM     12  C10 UNL     1     142.814 163.866 165.695  0.00  0.00    +0.000 C 
ATOM     13  C11 UNL     1     144.255 164.075 165.291  0.00  0.00    +0.000 C 
ATOM     14  C12 UNL     1     144.897 164.951 166.338  0.00  0.00    +0.000 C 
ENDBRANCH   4   9
BRANCH   3  15
ATOM     15  O2  UNL     1     145.902 165.615 169.940  0.00  0.00    +0.000 OA
ATOM     16  H1  UNL     1     145.623 166.432 169.406  0.00  0.00    +0.000 HD
ENDBRANCH   3  15
TORSDOF 2
ENDMDL
MODEL 8
REMARK VINA RESULT:      -4.9      2.442      5.540
REMARK  Name = ./3D_structures\o9_MMV002731_3D.pdb
REMARK  3 active torsions:
REMARK  status: ('A' for Active; 'I' for Inactive)
REMARK    1  A    between atoms: N1_3  and  O2_4
REMARK    2  A    between atoms: C2_5  and  C7_10
REMARK    3  A    between atoms: C4_7  and  C6_9
REMARK                            x       y       z     vdW  Elec       q    Type
REMARK                         _______ _______ _______ _____ _____    ______ ____
ROOT
ATOM      1  O1  UNL     1     157.558 158.354 171.707  0.00  0.00    +0.000 OA
ATOM      2  C1  UNL     1     157.000 158.135 170.600  0.00  0.00    +0.000 A 
ATOM      3  N1  UNL     1     157.684 157.975 169.454  0.00  0.00    +0.000 N 
ATOM      4  C2  UNL     1     157.111 157.739 168.261  0.00  0.00    +0.000 A 
ATOM      5  C3  UNL     1     155.723 157.665 168.265  0.00  0.00    +0.000 A 
ATOM      6  C4  UNL     1     154.967 157.819 169.398  0.00  0.00    +0.000 A 
ATOM      7  C5  UNL     1     155.613 158.059 170.594  0.00  0.00    +0.000 A 
ATOM      8  C6  UNL     1     153.489 157.742 169.416  0.00  0.00    +0.000 C 
ENDROOT
BRANCH   4   9
ATOM      9  C7  UNL     1     157.919 157.575 167.049  0.00  0.00    +0.000 C 
ATOM     10  C8  UNL     1     157.685 158.714 166.090  0.00  0.00    +0.000 C 
ATOM     11  C9  UNL     1     158.314 158.503 164.754  0.00  0.00    +0.000 C 
ATOM     12  C10 UNL     1     158.049 157.136 164.180  0.00  0.00    +0.000 C 
ATOM     13  C11 UNL     1     157.083 156.346 165.032  0.00  0.00    +0.000 C 
ATOM     14  C12 UNL     1     157.688 156.222 166.407  0.00  0.00    +0.000 C 
ENDBRANCH   4   9
BRANCH   3  15
ATOM     15  O2  UNL     1     159.059 158.064 169.542  0.00  0.00    +0.000 OA
ATOM     16  H1  UNL     1     159.480 158.953 169.292  0.00  0.00    +0.000 HD
ENDBRANCH   3  15
TORSDOF 2
ENDMDL
MODEL 9
REMARK VINA RESULT:      -4.9      2.735      3.770
REMARK  Name = ./3D_structures\o9_MMV002731_3D.pdb
REMARK  3 active torsions:
REMARK  status: ('A' for Active; 'I' for Inactive)
REMARK    1  A    between atoms: N1_3  and  O2_4
REMARK    2  A    between atoms: C2_5  and  C7_10
REMARK    3  A    between atoms: C4_7  and  C6_9
REMARK                            x       y       z     vdW  Elec       q    Type
REMARK                         _______ _______ _______ _____ _____    ______ ____
ROOT
ATOM      1  O1  UNL     1     158.181 158.269 171.054  0.00  0.00    +0.000 OA
ATOM      2  C1  UNL     1     157.209 158.126 170.268  0.00  0.00    +0.000 A 
ATOM      3  N1  UNL     1     155.954 158.495 170.579  0.00  0.00    +0.000 N 
ATOM      4  C2  UNL     1     154.900 158.354 169.757  0.00  0.00    +0.000 A 
ATOM      5  C3  UNL     1     155.176 157.785 168.519  0.00  0.00    +0.000 A 
ATOM      6  C4  UNL     1     156.432 157.387 168.139  0.00  0.00    +0.000 A 
ATOM      7  C5  UNL     1     157.474 157.559 169.028  0.00  0.00    +0.000 A 
ATOM      8  C6  UNL     1     156.739 156.780 166.825  0.00  0.00    +0.000 C 
ENDROOT
BRANCH   4   9
ATOM      9  C7  UNL     1     153.557 158.779 170.162  0.00  0.00    +0.000 C 
ATOM     10  C8  UNL     1     152.528 157.746 169.778  0.00  0.00    +0.000 C 
ATOM     11  C9  UNL     1     151.124 158.208 169.972  0.00  0.00    +0.000 C 
ATOM     12  C10 UNL     1     150.866 159.584 169.418  0.00  0.00    +0.000 C 
ATOM     13  C11 UNL     1     152.062 160.118 168.664  0.00  0.00    +0.000 C 
ATOM     14  C12 UNL     1     153.225 160.155 169.623  0.00  0.00    +0.000 C 
ENDBRANCH   4   9
BRANCH   3  15
ATOM     15  O2  UNL     1     155.771 159.052 171.830  0.00  0.00    +0.000 OA
ATOM     16  H1  UNL     1     156.109 159.999 171.967  0.00  0.00    +0.000 HD
ENDBRANCH   3  15
TORSDOF 2
ENDMDL
