REMARK  Name = ./3D_structures\o10_MMV002224_3D.pdb
REMARK  5 active torsions:
REMARK  status: ('A' for Active; 'I' for Inactive)
REMARK    1  A    between atoms: O1_1  and  C1_2
REMARK    2  A    between atoms: C1_2  and  C2_4
REMARK    3  A    between atoms: C2_4  and  C3_5
REMARK    4  A    between atoms: C3_5  and  N1_6
REMARK    5  A    between atoms: C4_7  and  C5_9
REMARK                            x       y       z     vdW  Elec       q    Type
REMARK                         _______ _______ _______ _____ _____    ______ ____
ROOT
ATOM      1  N1  UNL     1       0.717   0.360  -0.768  0.00  0.00    +0.000 N 
ATOM      2  C4  UNL     1      -0.211   0.193   0.271  0.00  0.00    +0.000 C 
ATOM      3  O3  UNL     1       0.301   0.089   1.439  0.00  0.00    +0.000 OA
ATOM      4  H6  UNL     1       0.341   0.449  -1.738  0.00  0.00    +0.000 HD
ENDROOT
BRANCH   2   5
ATOM      5  C5  UNL     1      -1.652   0.133   0.116  0.00  0.00    +0.000 A 
ATOM      6  C6  UNL     1      -2.246   0.239  -1.116  0.00  0.00    +0.000 A 
ATOM      7  C7  UNL     1      -3.642   0.174  -1.200  0.00  0.00    +0.000 A 
ATOM      8  C8  UNL     1      -4.436   0.006  -0.085  0.00  0.00    +0.000 A 
ATOM      9  C9  UNL     1      -3.816  -0.099   1.153  0.00  0.00    +0.000 A 
ATOM     10  C10 UNL     1      -2.449  -0.036   1.249  0.00  0.00    +0.000 A 
ENDBRANCH   2   5
BRANCH   1  11
ATOM     11  C3  UNL     1       2.143   0.417  -0.591  0.00  0.00    +0.000 C 
BRANCH  11  12
ATOM     12  C2  UNL     1       2.739  -0.801   0.020  0.00  0.00    +0.000 C 
BRANCH  12  13
ATOM     13  C1  UNL     1       4.215  -0.573   0.130  0.00  0.00    +0.000 C 
ATOM     14  O2  UNL     1       4.979  -1.447   0.616  0.00  0.00    +0.000 OA
BRANCH  13  15
ATOM     15  O1  UNL     1       4.819   0.604  -0.293  0.00  0.00    +0.000 OA
ATOM     16  H1  UNL     1       5.802   0.791  -0.133  0.00  0.00    +0.000 HD
ENDBRANCH  13  15
ENDBRANCH  12  13
ENDBRANCH  11  12
ENDBRANCH   1  11
TORSDOF 5
