REMARK  Name = ./3D_structures\o11_MMV637659_3D.pdb
REMARK  5 active torsions:
REMARK  status: ('A' for Active; 'I' for Inactive)
REMARK    1  A    between atoms: C1_1  and  C2_2
REMARK    2  A    between atoms: C6_6  and  N1_7
REMARK    3  A    between atoms: C9_10  and  O1_11
REMARK    4  A    between atoms: C16_20  and  C19_24
REMARK    5  A    between atoms: C19_24  and  O4_26
REMARK                            x       y       z     vdW  Elec       q    Type
REMARK                         _______ _______ _______ _____ _____    ______ ____
ROOT
ATOM      1  C1  UNL     1       3.539   2.640  -0.548  0.00  0.00    +0.000 C 
ATOM      2  C2  UNL     1       2.326   1.786  -0.873  0.00  0.00    +0.000 C 
ATOM      3  C3  UNL     1       1.153   2.354  -0.114  0.00  0.00    +0.000 C 
ATOM      4  C4  UNL     1      -0.073   1.542  -0.557  0.00  0.00    +0.000 C 
ATOM      5  C5  UNL     1       0.140   0.172  -0.087  0.00  0.00    +0.000 A 
ATOM      6  C6  UNL     1      -0.920  -0.617   0.295  0.00  0.00    +0.000 A 
ATOM      7  C12 UNL     1      -0.717  -1.903   0.734  0.00  0.00    +0.000 A 
ATOM      8  F1  UNL     1      -1.756  -2.672   1.108  0.00  0.00    +0.000 F 
ATOM      9  C13 UNL     1       0.572  -2.382   0.781  0.00  0.00    +0.000 A 
ATOM     10  C14 UNL     1       1.649  -1.614   0.403  0.00  0.00    +0.000 A 
ATOM     11  C15 UNL     1       2.906  -2.166   0.479  0.00  0.00    +0.000 A 
ATOM     12  O2  UNL     1       3.136  -3.337   0.874  0.00  0.00    +0.000 OA
ATOM     13  C16 UNL     1       4.012  -1.398   0.099  0.00  0.00    +0.000 A 
ATOM     14  C17 UNL     1       3.760  -0.107  -0.336  0.00  0.00    +0.000 A 
ATOM     15  N2  UNL     1       2.514   0.417  -0.403  0.00  0.00    +0.000 N 
ATOM     16  C18 UNL     1       1.449  -0.320  -0.038  0.00  0.00    +0.000 A 
ENDROOT
BRANCH   6  17
ATOM     17  N1  UNL     1      -2.243  -0.113   0.246  0.00  0.00    +0.000 N 
ATOM     18  C7  UNL     1      -2.803   0.556   1.402  0.00  0.00    +0.000 C 
ATOM     19  C8  UNL     1      -4.206   0.088   1.704  0.00  0.00    +0.000 C 
ATOM     20  C9  UNL     1      -5.081   0.068   0.476  0.00  0.00    +0.000 C 
ATOM     21  C10 UNL     1      -4.441  -0.719  -0.617  0.00  0.00    +0.000 C 
ATOM     22  C11 UNL     1      -3.037  -0.267  -0.953  0.00  0.00    +0.000 C 
BRANCH  20  23
ATOM     23  O1  UNL     1      -5.447   1.354   0.085  0.00  0.00    +0.000 OA
ATOM     24  H14 UNL     1      -5.319   1.452  -0.891  0.00  0.00    +0.000 HD
ENDBRANCH  20  23
ENDBRANCH   6  17
BRANCH  13  25
ATOM     25  C19 UNL     1       5.348  -1.948   0.167  0.00  0.00    +0.000 C 
ATOM     26  O3  UNL     1       6.334  -1.267  -0.171  0.00  0.00    +0.000 OA
BRANCH  25  27
ATOM     27  O4  UNL     1       5.533  -3.238   0.609  0.00  0.00    +0.000 OA
ATOM     28  H21 UNL     1       6.377  -3.505   1.116  0.00  0.00    +0.000 HD
ENDBRANCH  25  27
ENDBRANCH  13  25
TORSDOF 4
