REMARK  Name = ./3D_structures\o12_MMV1580846_3D.pdb
REMARK  11 active torsions:
REMARK  status: ('A' for Active; 'I' for Inactive)
REMARK    1  A    between atoms: C1_1  and  O1_2
REMARK    2  A    between atoms: O1_2  and  C2_3
REMARK    3  A    between atoms: C5_6  and  S1_7
REMARK    4  A    between atoms: S1_7  and  C6_8
REMARK    5  A    between atoms: N1_10  and  C7_11
REMARK    6  A    between atoms: C7_11  and  C8_12
REMARK    7  A    between atoms: C7_11  and  C11_17
REMARK    8  A    between atoms: C8_12  and  C9_13
REMARK    9  A    between atoms: C9_13  and  C10_14
REMARK   10  A    between atoms: C10_14  and  O4_16
REMARK   11  A    between atoms: C11_17  and  O6_19
REMARK                            x       y       z     vdW  Elec       q    Type
REMARK                         _______ _______ _______ _____ _____    ______ ____
ROOT
ATOM      1  C6  UNL     1      -0.317   0.214  -0.245  0.00  0.00    +0.000 C 
ATOM      2  O2  UNL     1       0.017   0.832   0.763  0.00  0.00    +0.000 OA
ATOM      3  N1  UNL     1      -1.719   0.269  -0.585  0.00  0.00    +0.000 N 
ATOM      4  H6  UNL     1      -2.016  -0.245  -1.429  0.00  0.00    +0.000 HD
ENDROOT
BRANCH   1   5
ATOM      5  S1  UNL     1       0.795  -0.699  -1.251  0.00  0.00    +0.000 S 
BRANCH   5   9
ATOM      6  C2  UNL     1       5.175  -0.607   0.202  0.00  0.00    +0.000 A 
ATOM      7  C3  UNL     1       4.199   0.064   0.895  0.00  0.00    +0.000 A 
ATOM      8  C4  UNL     1       2.861   0.052   0.474  0.00  0.00    +0.000 A 
ATOM      9  C5  UNL     1       2.460  -0.625  -0.641  0.00  0.00    +0.000 A 
ATOM     10  C12 UNL     1       3.477  -1.308  -1.338  0.00  0.00    +0.000 A 
ATOM     11  C13 UNL     1       4.769  -1.288  -0.918  0.00  0.00    +0.000 A 
BRANCH   6  13
ATOM     12  C1  UNL     1       6.966   0.071   1.737  0.00  0.00    +0.000 C 
ATOM     13  O1  UNL     1       6.504  -0.607   0.603  0.00  0.00    +0.000 OA
ENDBRANCH   6  13
ENDBRANCH   5   9
ENDBRANCH   1   5
BRANCH   3  14
ATOM     14  C7  UNL     1      -2.615   1.001   0.220  0.00  0.00    +0.000 C 
BRANCH  14  15
ATOM     15  C11 UNL     1      -3.294   2.120  -0.481  0.00  0.00    +0.000 C 
ATOM     16  O5  UNL     1      -3.122   2.426  -1.672  0.00  0.00    +0.000 OA
BRANCH  15  17
ATOM     17  O6  UNL     1      -4.189   2.878   0.263  0.00  0.00    +0.000 OA
ATOM     18  H13 UNL     1      -4.488   3.796   0.023  0.00  0.00    +0.000 HD
ENDBRANCH  15  17
ENDBRANCH  14  15
BRANCH  14  19
ATOM     19  C8  UNL     1      -3.703   0.157   0.853  0.00  0.00    +0.000 C 
BRANCH  19  20
ATOM     20  C9  UNL     1      -4.541  -0.527  -0.225  0.00  0.00    +0.000 C 
BRANCH  20  21
ATOM     21  C10 UNL     1      -5.595  -1.344   0.428  0.00  0.00    +0.000 C 
ATOM     22  O3  UNL     1      -5.695  -1.396   1.678  0.00  0.00    +0.000 OA
BRANCH  21  23
ATOM     23  O4  UNL     1      -6.478  -2.056  -0.353  0.00  0.00    +0.000 OA
ATOM     24  H12 UNL     1      -7.429  -2.227  -0.046  0.00  0.00    +0.000 HD
ENDBRANCH  21  23
ENDBRANCH  20  21
ENDBRANCH  19  20
ENDBRANCH  14  19
ENDBRANCH   3  14
TORSDOF 10
