REMARK  Name = ./3D_structures\o13_MMV1580845_3D.pdb
REMARK  9 active torsions:
REMARK  status: ('A' for Active; 'I' for Inactive)
REMARK    1  A    between atoms: C1_1  and  C2_2
REMARK    2  A    between atoms: C2_2  and  N1_3
REMARK    3  A    between atoms: C2_2  and  C5_7
REMARK    4  A    between atoms: C3_4  and  C4_6
REMARK    5  A    between atoms: N2_9  and  C6_10
REMARK    6  A    between atoms: C6_10  and  C7_11
REMARK    7  A    between atoms: C6_10  and  C14_18
REMARK    8  A    between atoms: C7_11  and  C8_12
REMARK    9  A    between atoms: C14_18  and  O4_20
REMARK                            x       y       z     vdW  Elec       q    Type
REMARK                         _______ _______ _______ _____ _____    ______ ____
ROOT
ATOM      1  C6  UNL     1      -1.182  -0.480   1.540  0.00  0.00    +0.000 C 
ENDROOT
BRANCH   1   4
ATOM      2  C5  UNL     1       1.126   0.404   1.019  0.00  0.00    +0.000 C 
ATOM      3  O2  UNL     1       1.522  -0.079   2.113  0.00  0.00    +0.000 OA
ATOM      4  N2  UNL     1      -0.235   0.217   0.704  0.00  0.00    +0.000 N 
ATOM      5  H9  UNL     1      -0.584   0.610  -0.200  0.00  0.00    +0.000 HD
BRANCH   2   7
ATOM      6  C1  UNL     1       1.536   2.496  -0.266  0.00  0.00    +0.000 C 
ATOM      7  C2  UNL     1       2.073   1.131   0.127  0.00  0.00    +0.000 C 
BRANCH   7   8
ATOM      8  N1  UNL     1       3.401   1.190   0.664  0.00  0.00    +0.000 N 
ATOM      9  C3  UNL     1       4.510   0.563   0.027  0.00  0.00    +0.000 C 
ATOM     10  O1  UNL     1       4.258  -0.050  -1.041  0.00  0.00    +0.000 OA
ATOM     11  C4  UNL     1       5.885   0.600   0.545  0.00  0.00    +0.000 C 
ATOM     12  H5  UNL     1       3.598   1.701   1.551  0.00  0.00    +0.000 HD
ENDBRANCH   7   8
ENDBRANCH   2   7
ENDBRANCH   1   4
BRANCH   1  13
ATOM     13  C14 UNL     1      -2.271   0.371   2.031  0.00  0.00    +0.000 C 
ATOM     14  O3  UNL     1      -2.316   1.572   1.720  0.00  0.00    +0.000 OA
BRANCH  13  15
ATOM     15  O4  UNL     1      -3.248  -0.158   2.837  0.00  0.00    +0.000 OA
ATOM     16  H18 UNL     1      -4.055   0.340   3.178  0.00  0.00    +0.000 HD
ENDBRANCH  13  15
ENDBRANCH   1  13
BRANCH   1  17
ATOM     17  C7  UNL     1      -1.677  -1.757   0.897  0.00  0.00    +0.000 C 
BRANCH  17  18
ATOM     18  C8  UNL     1      -2.351  -1.525  -0.385  0.00  0.00    +0.000 A 
ATOM     19  C9  UNL     1      -1.633  -1.529  -1.559  0.00  0.00    +0.000 A 
ATOM     20  C10 UNL     1      -2.213  -1.317  -2.794  0.00  0.00    +0.000 A 
ATOM     21  C11 UNL     1      -3.576  -1.092  -2.832  0.00  0.00    +0.000 A 
ATOM     22  C12 UNL     1      -4.316  -1.083  -1.668  0.00  0.00    +0.000 A 
ATOM     23  C13 UNL     1      -3.706  -1.298  -0.451  0.00  0.00    +0.000 A 
ENDBRANCH  17  18
ENDBRANCH   1  17
TORSDOF 7
