REMARK  Name = ./3D_structures\o14_MMV1579850_3D.pdb
REMARK  5 active torsions:
REMARK  status: ('A' for Active; 'I' for Inactive)
REMARK    1  A    between atoms: N1_1  and  C1_2
REMARK    2  A    between atoms: N2_4  and  C7_9
REMARK    3  A    between atoms: C12_16  and  C19_26
REMARK    4  A    between atoms: N3_18  and  C14_19
REMARK    5  A    between atoms: C19_26  and  O3_28
REMARK                            x       y       z     vdW  Elec       q    Type
REMARK                         _______ _______ _______ _____ _____    ______ ____
ROOT
ATOM      1  C7  UNL     1      -0.564   1.332   0.337  0.00  0.00    +0.000 A 
ATOM      2  C8  UNL     1      -0.038   2.563   0.637  0.00  0.00    +0.000 A 
ATOM      3  F1  UNL     1      -0.898   3.587   0.961  0.00  0.00    +0.000 F 
ATOM      4  C9  UNL     1       1.304   2.734   0.607  0.00  0.00    +0.000 A 
ATOM      5  C10 UNL     1       2.150   1.675   0.275  0.00  0.00    +0.000 A 
ATOM      6  C11 UNL     1       3.503   1.867   0.231  0.00  0.00    +0.000 A 
ATOM      7  O1  UNL     1       3.950   3.011   0.510  0.00  0.00    +0.000 OA
ATOM      8  C12 UNL     1       4.319   0.821  -0.113  0.00  0.00    +0.000 A 
ATOM      9  C13 UNL     1       3.804  -0.425  -0.414  0.00  0.00    +0.000 A 
ATOM     10  N3  UNL     1       2.477  -0.624  -0.371  0.00  0.00    +0.000 N 
ATOM     11  C17 UNL     1       1.659   0.412  -0.033  0.00  0.00    +0.000 A 
ATOM     12  C18 UNL     1       0.296   0.282   0.007  0.00  0.00    +0.000 A 
ATOM     13 CL1  UNL     1      -0.442  -1.237  -0.422  0.00  0.00    +0.000 Cl
ENDROOT
BRANCH   1  16
ATOM     14  C1  UNL     1      -4.196   0.701  -0.294  0.00  0.00    +0.000 C 
ATOM     15  C2  UNL     1      -2.880   1.304  -0.743  0.00  0.00    +0.000 C 
ATOM     16  N2  UNL     1      -1.962   1.128   0.362  0.00  0.00    +0.000 N 
ATOM     17  C3  UNL     1      -2.721   0.703   1.517  0.00  0.00    +0.000 C 
ATOM     18  C4  UNL     1      -3.795  -0.148   0.862  0.00  0.00    +0.000 C 
ATOM     19  C5  UNL     1      -4.760  -0.904   1.679  0.00  0.00    +0.000 C 
ATOM     20  C6  UNL     1      -3.697  -1.609   0.808  0.00  0.00    +0.000 C 
BRANCH  14  21
ATOM     21  N1  UNL     1      -4.887   0.013  -1.337  0.00  0.00    +0.000 NA
ATOM     22  H1  UNL     1      -4.301  -0.559  -1.956  0.00  0.00    +0.000 HD
ATOM     23  H2  UNL     1      -5.429   0.728  -1.897  0.00  0.00    +0.000 HD
ENDBRANCH  14  21
ENDBRANCH   1  16
BRANCH  10  24
ATOM     24  C14 UNL     1       1.956  -1.950  -0.646  0.00  0.00    +0.000 C 
ATOM     25  C15 UNL     1       1.638  -2.949   0.373  0.00  0.00    +0.000 C 
ATOM     26  C16 UNL     1       2.948  -3.076  -0.292  0.00  0.00    +0.000 C 
ATOM     27  F2  UNL     1       4.007  -2.881   0.529  0.00  0.00    +0.000 F 
ENDBRANCH  10  24
BRANCH   8  28
ATOM     28  C19 UNL     1       5.756   1.008  -0.167  0.00  0.00    +0.000 C 
ATOM     29  O2  UNL     1       6.249   2.128   0.102  0.00  0.00    +0.000 OA
BRANCH  28  30
ATOM     30  O3  UNL     1       6.613  -0.023  -0.510  0.00  0.00    +0.000 OA
ATOM     31  H18 UNL     1       7.595   0.038  -0.299  0.00  0.00    +0.000 HD
ENDBRANCH  28  30
ENDBRANCH   8  28
TORSDOF 5
