REMARK  Name = ./3D_structures\o15_MMV374187_3D.pdb
REMARK  4 active torsions:
REMARK  status: ('A' for Active; 'I' for Inactive)
REMARK    1  A    between atoms: C1_1  and  O1_2
REMARK    2  A    between atoms: O1_2  and  C2_3
REMARK    3  A    between atoms: C5_6  and  N1_7
REMARK    4  A    between atoms: C6_8  and  C7_10
REMARK                            x       y       z     vdW  Elec       q    Type
REMARK                         _______ _______ _______ _____ _____    ______ ____
ROOT
ATOM      1  N1  UNL     1       0.410  -0.104  -0.105  0.00  0.00    +0.000 N 
ATOM      2  C6  UNL     1      -0.607  -0.537  -0.981  0.00  0.00    +0.000 C 
ATOM      3  O2  UNL     1      -0.275  -1.138  -2.031  0.00  0.00    +0.000 OA
ATOM      4  H6  UNL     1       0.050   0.401   0.770  0.00  0.00    +0.000 HD
ENDROOT
BRANCH   2   5
ATOM      5  C7  UNL     1      -2.035  -0.293  -0.681  0.00  0.00    +0.000 A 
ATOM      6  C8  UNL     1      -2.500   0.353   0.438  0.00  0.00    +0.000 A 
ATOM      7  C9  UNL     1      -3.871   0.401   0.391  0.00  0.00    +0.000 A 
ATOM      8  C10 UNL     1      -4.775   0.940   1.274  0.00  0.00    +0.000 A 
ATOM      9  C11 UNL     1      -6.145   0.857   0.992  0.00  0.00    +0.000 A 
ATOM     10  C12 UNL     1      -6.484   0.223  -0.182  0.00  0.00    +0.000 A 
ATOM     11  C13 UNL     1      -5.530  -0.295  -1.021  0.00  0.00    +0.000 A 
ATOM     12  N2  UNL     1      -4.219  -0.216  -0.753  0.00  0.00    +0.000 N 
ATOM     13  N3  UNL     1      -3.118  -0.630  -1.390  0.00  0.00    +0.000 NA
ENDBRANCH   2   5
BRANCH   1  17
ATOM     14  C2  UNL     1       4.636  -0.417  -0.317  0.00  0.00    +0.000 A 
ATOM     15  C3  UNL     1       3.852  -1.000  -1.280  0.00  0.00    +0.000 A 
ATOM     16  C4  UNL     1       2.450  -0.927  -1.256  0.00  0.00    +0.000 A 
ATOM     17  C5  UNL     1       1.802  -0.269  -0.266  0.00  0.00    +0.000 A 
ATOM     18  C14 UNL     1       2.601   0.327   0.720  0.00  0.00    +0.000 A 
ATOM     19  C15 UNL     1       3.974   0.251   0.689  0.00  0.00    +0.000 A 
BRANCH  14  21
ATOM     20  C1  UNL     1       6.757   0.144   0.698  0.00  0.00    +0.000 C 
ATOM     21  O1  UNL     1       6.028  -0.488  -0.339  0.00  0.00    +0.000 OA
ENDBRANCH  14  21
ENDBRANCH   1  17
TORSDOF 3
