REMARK  Name = ./3D_structures\o16_MMV1579781_3D.pdb
REMARK  7 active torsions:
REMARK  status: ('A' for Active; 'I' for Inactive)
REMARK    1  A    between atoms: C1_1  and  C2_2
REMARK    2  A    between atoms: C2_2  and  C3_3
REMARK    3  A    between atoms: C2_2  and  C10_10
REMARK    4  A    between atoms: C3_3  and  C4_4
REMARK    5  A    between atoms: N1_12  and  C11_13
REMARK    6  A    between atoms: C16_19  and  C17_20
REMARK    7  A    between atoms: C17_20  and  O3_22
REMARK                            x       y       z     vdW  Elec       q    Type
REMARK                         _______ _______ _______ _____ _____    ______ ____
ROOT
ATOM      1  C10 UNL     1      -0.380   0.575   0.395  0.00  0.00    +0.000 C 
ATOM      2  O1  UNL     1      -0.350   1.282   1.411  0.00  0.00    +0.000 OA
ATOM      3  N1  UNL     1      -1.584   0.086  -0.164  0.00  0.00    +0.000 N 
ATOM      4  H12 UNL     1      -1.441  -0.495  -1.044  0.00  0.00    +0.000 HD
ENDROOT
BRANCH   3   5
ATOM      5  C11 UNL     1      -2.873   0.343   0.354  0.00  0.00    +0.000 A 
ATOM      6  C12 UNL     1      -3.090   1.269   1.363  0.00  0.00    +0.000 A 
ATOM      7  C13 UNL     1      -4.359   1.574   1.870  0.00  0.00    +0.000 A 
ATOM      8  C14 UNL     1      -5.418   0.903   1.315  0.00  0.00    +0.000 A 
ATOM      9 CL1  UNL     1      -7.025   1.275   1.940  0.00  0.00    +0.000 Cl
ATOM     10  C15 UNL     1      -5.219  -0.012   0.320  0.00  0.00    +0.000 A 
ATOM     11  C16 UNL     1      -3.946  -0.329  -0.199  0.00  0.00    +0.000 A 
BRANCH  11  12
ATOM     12  C17 UNL     1      -3.890  -1.339  -1.237  0.00  0.00    +0.000 C 
ATOM     13  O2  UNL     1      -2.855  -1.739  -1.764  0.00  0.00    +0.000 OA
BRANCH  12  14
ATOM     14  O3  UNL     1      -5.069  -1.942  -1.717  0.00  0.00    +0.000 OA
ATOM     15  H16 UNL     1      -5.074  -2.449  -2.593  0.00  0.00    +0.000 HD
ENDBRANCH  12  14
ENDBRANCH  11  12
ENDBRANCH   3   5
BRANCH   1  17
ATOM     16  C1  UNL     1       1.001  -1.298  -0.220  0.00  0.00    +0.000 C 
ATOM     17  C2  UNL     1       0.947   0.233  -0.262  0.00  0.00    +0.000 C 
BRANCH  17  18
ATOM     18  C3  UNL     1       2.031   0.813   0.584  0.00  0.00    +0.000 C 
BRANCH  18  19
ATOM     19  C4  UNL     1       3.381   0.432   0.173  0.00  0.00    +0.000 A 
ATOM     20  C5  UNL     1       4.120   1.159  -0.733  0.00  0.00    +0.000 A 
ATOM     21  C6  UNL     1       5.408   0.759  -1.098  0.00  0.00    +0.000 A 
ATOM     22  C7  UNL     1       5.975  -0.378  -0.561  0.00  0.00    +0.000 A 
ATOM     23  C8  UNL     1       5.231  -1.103   0.346  0.00  0.00    +0.000 A 
ATOM     24  C9  UNL     1       3.972  -0.697   0.692  0.00  0.00    +0.000 A 
ENDBRANCH  18  19
ENDBRANCH  17  18
ENDBRANCH   1  17
TORSDOF 6
