REMARK  Name = ./3D_structures\o17_MMV1579780_3D.pdb
REMARK  8 active torsions:
REMARK  status: ('A' for Active; 'I' for Inactive)
REMARK    1  A    between atoms: C1_1  and  C2_2
REMARK    2  A    between atoms: C2_2  and  C3_3
REMARK    3  A    between atoms: C2_2  and  N1_4
REMARK    4  A    between atoms: C6_8  and  N3_9
REMARK    5  A    between atoms: N3_9  and  C7_10
REMARK    6  A    between atoms: C7_10  and  C8_11
REMARK    7  A    between atoms: N5_19  and  C15_20
REMARK    8  A    between atoms: C15_20  and  C16_21
REMARK                            x       y       z     vdW  Elec       q    Type
REMARK                         _______ _______ _______ _____ _____    ______ ____
ROOT
ATOM      1  N1  UNL     1       0.391  -2.537  -0.383  0.00  0.00    +0.000 N 
ATOM      2  C4  UNL     1      -0.659  -2.723  -1.214  0.00  0.00    +0.000 A 
ATOM      3  N2  UNL     1      -1.426  -1.634  -1.160  0.00  0.00    +0.000 NA
ATOM      4  C5  UNL     1      -0.905  -0.732  -0.309  0.00  0.00    +0.000 A 
ATOM      5  C6  UNL     1      -1.271   0.524   0.116  0.00  0.00    +0.000 A 
ATOM      6  N4  UNL     1      -0.482   1.148   1.002  0.00  0.00    +0.000 NA
ATOM      7  C14 UNL     1       0.644   0.612   1.497  0.00  0.00    +0.000 A 
ATOM      8  N5  UNL     1       1.458   1.328   2.452  0.00  0.00    +0.000 N 
ATOM      9  N6  UNL     1       0.992  -0.614   1.076  0.00  0.00    +0.000 NA
ATOM     10  C22 UNL     1       0.252  -1.321   0.179  0.00  0.00    +0.000 A 
ATOM     11  H17 UNL     1       1.156   2.284   2.758  0.00  0.00    +0.000 HD
ENDROOT
BRANCH   1  13
ATOM     12  C1  UNL     1       0.994  -4.717   0.561  0.00  0.00    +0.000 C 
ATOM     13  C2  UNL     1       1.461  -3.445  -0.128  0.00  0.00    +0.000 C 
ATOM     14  C3  UNL     1       2.123  -3.766  -1.458  0.00  0.00    +0.000 C 
ENDBRANCH   1  13
BRANCH   5  15
ATOM     15  N3  UNL     1      -2.461   1.099  -0.402  0.00  0.00    +0.000 N 
ATOM     16  H9  UNL     1      -3.017   0.549  -1.087  0.00  0.00    +0.000 HD
BRANCH  15  17
ATOM     17  C7  UNL     1      -2.932   2.405  -0.024  0.00  0.00    +0.000 C 
BRANCH  17  18
ATOM     18  C8  UNL     1      -4.194   2.697  -0.746  0.00  0.00    +0.000 A 
ATOM     19  C9  UNL     1      -5.419   2.375  -0.239  0.00  0.00    +0.000 A 
ATOM     20  C10 UNL     1      -6.589   2.664  -0.945  0.00  0.00    +0.000 A 
ATOM     21  C11 UNL     1      -6.497   3.279  -2.160  0.00  0.00    +0.000 A 
ATOM     22  C12 UNL     1      -5.277   3.619  -2.702  0.00  0.00    +0.000 A 
ATOM     23  C13 UNL     1      -4.131   3.317  -1.975  0.00  0.00    +0.000 A 
ENDBRANCH  17  18
ENDBRANCH  15  17
ENDBRANCH   5  15
BRANCH   8  24
ATOM     24  C15 UNL     1       2.660   0.778   2.991  0.00  0.00    +0.000 C 
BRANCH  24  25
ATOM     25  C16 UNL     1       3.619   0.539   1.860  0.00  0.00    +0.000 A 
ATOM     26  C17 UNL     1       4.691  -0.312   2.015  0.00  0.00    +0.000 A 
ATOM     27  C18 UNL     1       5.555  -0.507   0.964  0.00  0.00    +0.000 A 
ATOM     28  C19 UNL     1       5.340   0.152  -0.234  0.00  0.00    +0.000 A 
ATOM     29  C20 UNL     1       4.264   1.002  -0.378  0.00  0.00    +0.000 A 
ATOM     30  C21 UNL     1       3.398   1.198   0.672  0.00  0.00    +0.000 A 
ENDBRANCH  24  25
ENDBRANCH   8  24
TORSDOF 6
