REMARK  Name = ./3D_structures\o18_MMV688756_3D.pdb
REMARK  5 active torsions:
REMARK  status: ('A' for Active; 'I' for Inactive)
REMARK    1  A    between atoms: C1_1  and  C2_2
REMARK    2  A    between atoms: N1_4  and  C3_5
REMARK    3  A    between atoms: C3_5  and  C4_6
REMARK    4  A    between atoms: N2_8  and  C7_12
REMARK    5  A    between atoms: C10_15  and  N3_16
REMARK                            x       y       z     vdW  Elec       q    Type
REMARK                         _______ _______ _______ _____ _____    ______ ____
ROOT
ATOM      1  C7  UNL     1      -0.096   1.008  -0.297  0.00  0.00    +0.000 A 
ATOM      2  C8  UNL     1       0.362   0.451  -1.432  0.00  0.00    +0.000 A 
ATOM      3  C9  UNL     1       1.651   0.034  -1.575  0.00  0.00    +0.000 A 
ATOM      4  C10 UNL     1       2.566   0.187  -0.494  0.00  0.00    +0.000 A 
ATOM      5  C15 UNL     1       2.105   0.750   0.652  0.00  0.00    +0.000 A 
ATOM      6  F1  UNL     1       3.000   0.901   1.689  0.00  0.00    +0.000 F 
ATOM      7  C16 UNL     1       0.800   1.167   0.785  0.00  0.00    +0.000 A 
ENDROOT
BRANCH   1  10
ATOM      8  C4  UNL     1      -3.716   1.463   0.479  0.00  0.00    +0.000 C 
ATOM      9  C5  UNL     1      -2.410   0.761   0.725  0.00  0.00    +0.000 C 
ATOM     10  N2  UNL     1      -1.426   1.446  -0.108  0.00  0.00    +0.000 N 
ATOM     11  C6  UNL     1      -2.079   2.565  -0.637  0.00  0.00    +0.000 C 
ATOM     12  O2  UNL     1      -1.652   3.332  -1.560  0.00  0.00    +0.000 OA
ATOM     13  O3  UNL     1      -3.305   2.731   0.006  0.00  0.00    +0.000 OA
BRANCH   8  14
ATOM     14  C3  UNL     1      -4.407   0.758  -0.683  0.00  0.00    +0.000 C 
BRANCH  14  18
ATOM     15  C1  UNL     1      -6.270  -2.088   1.088  0.00  0.00    +0.000 C 
ATOM     16  C2  UNL     1      -5.818  -0.702   0.721  0.00  0.00    +0.000 C 
ATOM     17  O1  UNL     1      -6.287   0.290   1.329  0.00  0.00    +0.000 OA
ATOM     18  N1  UNL     1      -4.869  -0.545  -0.304  0.00  0.00    +0.000 N 
ATOM     19  H4  UNL     1      -4.505  -1.411  -0.792  0.00  0.00    +0.000 HD
ENDBRANCH  14  18
ENDBRANCH   8  14
ENDBRANCH   1  10
BRANCH   4  20
ATOM     20  N3  UNL     1       3.896  -0.282  -0.699  0.00  0.00    +0.000 N 
ATOM     21  C11 UNL     1       4.977   0.643  -0.516  0.00  0.00    +0.000 C 
ATOM     22  C12 UNL     1       6.090   0.174   0.362  0.00  0.00    +0.000 C 
ATOM     23  S1  UNL     1       5.660  -1.454   1.068  0.00  0.00    +0.000 S 
ATOM     24  C13 UNL     1       5.090  -2.434  -0.374  0.00  0.00    +0.000 C 
ATOM     25  C14 UNL     1       4.055  -1.651  -1.101  0.00  0.00    +0.000 C 
ENDBRANCH   4  20
TORSDOF 4
