REMARK  Name = ./3D_structures\o19_MMV1578897_3D.pdb
REMARK  4 active torsions:
REMARK  status: ('A' for Active; 'I' for Inactive)
REMARK    1  A    between atoms: C1_1  and  C2_2
REMARK    2  A    between atoms: C5_5  and  N1_6
REMARK    3  A    between atoms: C6_7  and  C7_9
REMARK    4  A    between atoms: C12_15  and  O2_16
REMARK                            x       y       z     vdW  Elec       q    Type
REMARK                         _______ _______ _______ _____ _____    ______ ____
ROOT
ATOM      1  N1  UNL     1       0.142   0.352  -0.442  0.00  0.00    +0.000 N 
ATOM      2  C6  UNL     1       1.042  -0.375   0.366  0.00  0.00    +0.000 C 
ATOM      3  O1  UNL     1       0.548  -1.158   1.212  0.00  0.00    +0.000 OA
ATOM      4  H6  UNL     1       0.587   1.018  -1.149  0.00  0.00    +0.000 HD
ENDROOT
BRANCH   1   9
ATOM      5  C1  UNL     1      -5.513   0.101  -0.367  0.00  0.00    +0.000 C 
ATOM      6  C2  UNL     1      -4.030   0.199  -0.396  0.00  0.00    +0.000 A 
ATOM      7  C3  UNL     1      -3.384   1.282  -0.928  0.00  0.00    +0.000 A 
ATOM      8  C4  UNL     1      -2.020   1.326  -0.931  0.00  0.00    +0.000 A 
ATOM      9  C5  UNL     1      -1.265   0.273  -0.394  0.00  0.00    +0.000 A 
ATOM     10  C13 UNL     1      -1.923  -0.792   0.129  0.00  0.00    +0.000 A 
ATOM     11  C14 UNL     1      -3.309  -0.838   0.133  0.00  0.00    +0.000 A 
ENDBRANCH   1   9
BRANCH   2  12
ATOM     12  C7  UNL     1       2.519  -0.239   0.241  0.00  0.00    +0.000 A 
ATOM     13  C8  UNL     1       3.045   0.626  -0.696  0.00  0.00    +0.000 A 
ATOM     14  C9  UNL     1       4.417   0.803  -0.867  0.00  0.00    +0.000 A 
ATOM     15 CL1  UNL     1       5.021   1.913  -2.071  0.00  0.00    +0.000 Cl
ATOM     16  C10 UNL     1       5.233   0.067  -0.051  0.00  0.00    +0.000 A 
ATOM     17  C11 UNL     1       4.727  -0.792   0.880  0.00  0.00    +0.000 A 
ATOM     18  C12 UNL     1       3.333  -0.980   1.064  0.00  0.00    +0.000 A 
BRANCH  18  19
ATOM     19  O2  UNL     1       2.930  -1.865   2.025  0.00  0.00    +0.000 OA
ATOM     20  H10 UNL     1       2.044  -2.113   2.281  0.00  0.00    +0.000 HD
ENDBRANCH  18  19
ENDBRANCH   2  12
TORSDOF 3
