REMARK  Name = ./3D_structures\o1_MMV1578558_3D.pdb
REMARK  5 active torsions:
REMARK  status: ('A' for Active; 'I' for Inactive)
REMARK    1  A    between atoms: C1_1  and  C2_2
REMARK    2  A    between atoms: C2_2  and  C3_3
REMARK    3  A    between atoms: C10_11  and  C11_12
REMARK    4  A    between atoms: C11_12  and  C12_14
REMARK    5  A    between atoms: C15_17  and  O3_18
REMARK                            x       y       z     vdW  Elec       q    Type
REMARK                         _______ _______ _______ _____ _____    ______ ____
ROOT
ATOM      1  C3  UNL     1      -2.092   1.014  -0.173  0.00  0.00    +0.000 A 
ATOM      2  O1  UNL     1      -3.001   0.227   0.297  0.00  0.00    +0.000 OA
ATOM      3  C4  UNL     1      -2.539  -0.942   0.455  0.00  0.00    +0.000 A 
ATOM      4  C5  UNL     1      -3.205  -2.118   0.821  0.00  0.00    +0.000 A 
ATOM      5  C6  UNL     1      -2.496  -3.303   0.763  0.00  0.00    +0.000 A 
ATOM      6  C7  UNL     1      -1.086  -3.363   0.412  0.00  0.00    +0.000 A 
ATOM      7  C8  UNL     1      -0.596  -2.119   0.107  0.00  0.00    +0.000 A 
ATOM      8  C9  UNL     1      -1.195  -1.012   0.108  0.00  0.00    +0.000 A 
ATOM      9  C10 UNL     1      -0.899   0.303  -0.310  0.00  0.00    +0.000 A 
ENDROOT
BRANCH   1  11
ATOM     10  C1  UNL     1      -2.475   3.509   0.402  0.00  0.00    +0.000 C 
ATOM     11  C2  UNL     1      -2.402   2.377  -0.540  0.00  0.00    +0.000 C 
ENDBRANCH   1  11
BRANCH   9  12
ATOM     12  C11 UNL     1       0.323   0.782  -0.792  0.00  0.00    +0.000 C 
ATOM     13  O2  UNL     1       0.373   1.834  -1.606  0.00  0.00    +0.000 OA
BRANCH  12  14
ATOM     14  C12 UNL     1       1.692   0.297  -0.591  0.00  0.00    +0.000 A 
ATOM     15  C13 UNL     1       2.069   0.046   0.680  0.00  0.00    +0.000 A 
ATOM     16  C14 UNL     1       3.332  -0.234   0.967  0.00  0.00    +0.000 A 
ATOM     17  C15 UNL     1       4.307  -0.291  -0.008  0.00  0.00    +0.000 A 
ATOM     18  C16 UNL     1       3.936  -0.057  -1.289  0.00  0.00    +0.000 A 
ATOM     19  C17 UNL     1       2.638   0.235  -1.604  0.00  0.00    +0.000 A 
BRANCH  17  20
ATOM     20  O3  UNL     1       5.649  -0.546   0.486  0.00  0.00    +0.000 OA
ATOM     21  H12 UNL     1       5.988   0.274   1.136  0.00  0.00    +0.000 HD
ENDBRANCH  17  20
ENDBRANCH  12  14
ENDBRANCH   9  12
TORSDOF 4
