REMARK  Name = ./3D_structures\o20_MMV001014_3D.pdb
REMARK  4 active torsions:
REMARK  status: ('A' for Active; 'I' for Inactive)
REMARK    1  A    between atoms: C1_2  and  C2_5
REMARK    2  A    between atoms: N1_7  and  C3_8
REMARK    3  A    between atoms: C8_13  and  N2_14
REMARK    4  A    between atoms: C13_20  and  C14_22
REMARK                            x       y       z     vdW  Elec       q    Type
REMARK                         _______ _______ _______ _____ _____    ______ ____
ROOT
ATOM      1  C3  UNL     1      -3.479   0.360  -0.317  0.00  0.00    +0.000 A 
ATOM      2  C4  UNL     1      -4.761   0.760  -0.619  0.00  0.00    +0.000 A 
ATOM      3  C5  UNL     1      -5.104   2.005  -1.121  0.00  0.00    +0.000 A 
ATOM      4  C6  UNL     1      -4.115   2.909  -1.337  0.00  0.00    +0.000 A 
ATOM      5  C7  UNL     1      -2.818   2.558  -1.051  0.00  0.00    +0.000 A 
ATOM      6  C8  UNL     1      -2.480   1.296  -0.542  0.00  0.00    +0.000 A 
ENDROOT
BRANCH   6   7
ATOM      7  N2  UNL     1      -1.115   1.074  -0.255  0.00  0.00    +0.000 N 
ATOM      8  C9  UNL     1      -0.606   1.002   1.094  0.00  0.00    +0.000 C 
ATOM      9  C10 UNL     1       0.748   1.720   1.063  0.00  0.00    +0.000 C 
ATOM     10  N3  UNL     1       1.643   0.779   0.337  0.00  0.00    +0.000 N 
ATOM     11  C11 UNL     1       1.142   0.287  -0.889  0.00  0.00    +0.000 C 
ATOM     12  C12 UNL     1      -0.175   0.931  -1.337  0.00  0.00    +0.000 C 
ATOM     13  C13 UNL     1       2.862   0.503   0.946  0.00  0.00    +0.000 C 
ATOM     14  O2  UNL     1       3.024   1.151   2.095  0.00  0.00    +0.000 OA
BRANCH  13  15
ATOM     15  C14 UNL     1       3.963  -0.337   0.576  0.00  0.00    +0.000 A 
ATOM     16  C15 UNL     1       4.005  -1.113  -0.535  0.00  0.00    +0.000 A 
ATOM     17  C16 UNL     1       5.126  -1.911  -0.845  0.00  0.00    +0.000 A 
ATOM     18  C17 UNL     1       6.219  -1.927  -0.021  0.00  0.00    +0.000 A 
ATOM     19  C18 UNL     1       6.198  -1.155   1.102  0.00  0.00    +0.000 A 
ATOM     20  C19 UNL     1       5.106  -0.386   1.388  0.00  0.00    +0.000 A 
ENDBRANCH  13  15
ENDBRANCH   6   7
BRANCH   1  23
ATOM     21  C2  UNL     1      -3.944  -1.985   0.541  0.00  0.00    +0.000 C 
ATOM     22  O1  UNL     1      -5.177  -1.845   0.473  0.00  0.00    +0.000 OA
ATOM     23  N1  UNL     1      -3.101  -0.915   0.159  0.00  0.00    +0.000 N 
ATOM     24  H1  UNL     1      -2.052  -1.109   0.228  0.00  0.00    +0.000 HD
BRANCH  21  26
ATOM     25 CL1  UNL     1      -4.746  -4.356   1.401  0.00  0.00    +0.000 Cl
ATOM     26  C1  UNL     1      -3.383  -3.287   1.025  0.00  0.00    +0.000 C 
ATOM     27 CL2  UNL     1      -2.438  -4.078  -0.272  0.00  0.00    +0.000 Cl
ATOM     28 CL3  UNL     1      -2.410  -3.087   2.481  0.00  0.00    +0.000 Cl
ENDBRANCH  21  26
ENDBRANCH   1  23
TORSDOF 4
