REMARK  Name = ./3D_structures\o21_MMV1578885_3D.pdb
REMARK  4 active torsions:
REMARK  status: ('A' for Active; 'I' for Inactive)
REMARK    1  A    between atoms: C1_2  and  C2_5
REMARK    2  A    between atoms: C4_7  and  N4_29
REMARK    3  A    between atoms: N3_19  and  C14_22
REMARK    4  A    between atoms: C14_22  and  C15_23
REMARK                            x       y       z     vdW  Elec       q    Type
REMARK                         _______ _______ _______ _____ _____    ______ ____
ROOT
ATOM      1  C2  UNL     1      -7.208  -0.472   0.938  0.00  0.00    +0.000 A 
ATOM      2  C3  UNL     1      -7.203   0.343  -0.170  0.00  0.00    +0.000 A 
ATOM      3  C4  UNL     1      -5.971   0.592  -0.770  0.00  0.00    +0.000 A 
ATOM      4  C5  UNL     1      -4.812   0.043  -0.263  0.00  0.00    +0.000 A 
ATOM      5  S1  UNL     1      -3.272   0.303  -0.929  0.00  0.00    +0.000 S 
ATOM      6  C6  UNL     1      -2.015  -0.495  -0.079  0.00  0.00    +0.000 A 
ATOM      7  N1  UNL     1      -2.465  -1.195   0.972  0.00  0.00    +0.000 NA
ATOM      8  C7  UNL     1      -3.707  -1.322   1.389  0.00  0.00    +0.000 A 
ATOM      9  O1  UNL     1      -3.876  -2.057   2.430  0.00  0.00    +0.000 OA
ATOM     10  C8  UNL     1      -4.837  -0.768   0.848  0.00  0.00    +0.000 A 
ATOM     11  C9  UNL     1      -6.063  -1.043   1.479  0.00  0.00    +0.000 A 
ATOM     12  N2  UNL     1      -0.661  -0.460  -0.389  0.00  0.00    +0.000 N 
ATOM     13  C10 UNL     1      -0.146   0.276  -1.527  0.00  0.00    +0.000 C 
ATOM     14  C11 UNL     1       0.941   1.154  -0.931  0.00  0.00    +0.000 C 
ATOM     15  N3  UNL     1       2.073   0.279  -0.652  0.00  0.00    +0.000 NA
ATOM     16  C12 UNL     1       1.694  -1.039  -0.203  0.00  0.00    +0.000 C 
ATOM     17  C13 UNL     1       0.308  -1.126   0.413  0.00  0.00    +0.000 C 
ENDROOT
BRANCH   1  19
ATOM     18  F1  UNL     1      -8.273  -0.739   2.988  0.00  0.00    +0.000 F 
ATOM     19  C1  UNL     1      -8.482  -0.746   1.618  0.00  0.00    +0.000 C 
ATOM     20  F2  UNL     1      -9.379   0.286   1.349  0.00  0.00    +0.000 F 
ATOM     21  F3  UNL     1      -8.940  -1.971   1.257  0.00  0.00    +0.000 F 
ENDBRANCH   1  19
BRANCH   3  22
ATOM     22  N4  UNL     1      -5.905   1.424  -1.921  0.00  0.00    +0.000 N 
ATOM     23  O2  UNL     1      -4.784   2.152  -2.245  0.00  0.00    +0.000 OA
ATOM     24  O3  UNL     1      -6.863   1.510  -2.675  0.00  0.00    +0.000 OA
ENDBRANCH   3  22
BRANCH  15  25
ATOM     25  C14 UNL     1       2.982   0.941   0.269  0.00  0.00    +0.000 C 
BRANCH  25  26
ATOM     26  C15 UNL     1       4.261   0.174   0.410  0.00  0.00    +0.000 C 
ATOM     27  C16 UNL     1       4.940   0.078  -0.941  0.00  0.00    +0.000 C 
ATOM     28  C17 UNL     1       6.357  -0.362  -0.840  0.00  0.00    +0.000 C 
ATOM     29  C18 UNL     1       7.170   0.456   0.151  0.00  0.00    +0.000 C 
ATOM     30  C19 UNL     1       6.465   0.293   1.487  0.00  0.00    +0.000 C 
ATOM     31  C20 UNL     1       5.134   1.004   1.363  0.00  0.00    +0.000 C 
ENDBRANCH  25  26
ENDBRANCH  15  25
TORSDOF 4
