REMARK  Name = ./3D_structures\o23_MMV011565_3D.pdb
REMARK  4 active torsions:
REMARK  status: ('A' for Active; 'I' for Inactive)
REMARK    1  A    between atoms: C1_1  and  O1_2
REMARK    2  A    between atoms: O1_2  and  C2_3
REMARK    3  A    between atoms: C6_8  and  C11_14
REMARK    4  A    between atoms: C8_10  and  O2_11
REMARK                            x       y       z     vdW  Elec       q    Type
REMARK                         _______ _______ _______ _____ _____    ______ ____
ROOT
ATOM      1  C2  UNL     1       3.582  -0.185  -0.452  0.00  0.00    +0.000 A 
ATOM      2  C3  UNL     1       3.192   0.314   0.786  0.00  0.00    +0.000 A 
ATOM      3  C4  UNL     1       1.872   0.472   1.119  0.00  0.00    +0.000 A 
ATOM      4  C5  UNL     1       0.907   0.116   0.175  0.00  0.00    +0.000 A 
ATOM      5  N1  UNL     1      -0.391   0.271   0.503  0.00  0.00    +0.000 NA
ATOM      6  C6  UNL     1      -1.377  -0.042  -0.331  0.00  0.00    +0.000 A 
ATOM      7  C7  UNL     1      -1.023  -0.539  -1.564  0.00  0.00    +0.000 A 
ATOM      8  C8  UNL     1       0.289  -0.720  -1.956  0.00  0.00    +0.000 A 
ATOM      9  C9  UNL     1       1.288  -0.378  -1.048  0.00  0.00    +0.000 A 
ATOM     10  C10 UNL     1       2.615  -0.529  -1.364  0.00  0.00    +0.000 A 
ENDROOT
BRANCH   6  11
ATOM     11  C11 UNL     1      -2.793   0.140   0.058  0.00  0.00    +0.000 A 
ATOM     12  C12 UNL     1      -3.065   0.642   1.308  0.00  0.00    +0.000 A 
ATOM     13  C13 UNL     1      -4.366   0.845   1.756  0.00  0.00    +0.000 A 
ATOM     14  C14 UNL     1      -5.431   0.538   0.932  0.00  0.00    +0.000 A 
ATOM     15  C15 UNL     1      -5.172   0.034  -0.323  0.00  0.00    +0.000 A 
ATOM     16  C16 UNL     1      -3.852  -0.164  -0.756  0.00  0.00    +0.000 A 
ENDBRANCH   6  11
BRANCH   1  18
ATOM     17  C1  UNL     1       5.903   0.035   0.214  0.00  0.00    +0.000 C 
ATOM     18  O1  UNL     1       4.926  -0.330  -0.752  0.00  0.00    +0.000 OA
ENDBRANCH   1  18
BRANCH   8  19
ATOM     19  O2  UNL     1       0.671  -1.216  -3.186  0.00  0.00    +0.000 OA
ATOM     20  H7  UNL     1       0.056  -1.494  -3.914  0.00  0.00    +0.000 HD
ENDBRANCH   8  19
TORSDOF 3
