REMARK  Name = ./3D_structures\o24_MMV452821_3D.pdb
REMARK  5 active torsions:
REMARK  status: ('A' for Active; 'I' for Inactive)
REMARK    1  A    between atoms: O1_1  and  C1_2
REMARK    2  A    between atoms: C1_2  and  C2_4
REMARK    3  A    between atoms: C2_4  and  C3_5
REMARK    4  A    between atoms: C2_4  and  N2_15
REMARK    5  A    between atoms: C3_5  and  C4_6
REMARK                            x       y       z     vdW  Elec       q    Type
REMARK                         _______ _______ _______ _____ _____    ______ ____
ROOT
ATOM      1  C2  UNL     1      -0.287   0.873  -0.713  0.00  0.00    +0.000 C 
ENDROOT
BRANCH   1   2
ATOM      2  N2  UNL     1      -1.611   0.434  -0.351  0.00  0.00    +0.000 N 
ATOM      3  C12 UNL     1      -2.653  -0.013  -1.248  0.00  0.00    +0.000 C 
ATOM      4  O3  UNL     1      -2.500  -0.047  -2.503  0.00  0.00    +0.000 OA
ATOM      5  C13 UNL     1      -3.821  -0.389  -0.491  0.00  0.00    +0.000 A 
ATOM      6  C14 UNL     1      -5.051  -0.880  -0.858  0.00  0.00    +0.000 A 
ATOM      7  C15 UNL     1      -6.023  -1.182   0.054  0.00  0.00    +0.000 A 
ATOM      8  C16 UNL     1      -5.770  -0.990   1.405  0.00  0.00    +0.000 A 
ATOM      9  C17 UNL     1      -4.547  -0.500   1.800  0.00  0.00    +0.000 A 
ATOM     10  C18 UNL     1      -3.568  -0.198   0.858  0.00  0.00    +0.000 A 
ATOM     11  C19 UNL     1      -2.192   0.315   0.946  0.00  0.00    +0.000 C 
ATOM     12  O4  UNL     1      -1.609   0.608   2.028  0.00  0.00    +0.000 OA
ENDBRANCH   1   2
BRANCH   1  13
ATOM     13  C1  UNL     1      -0.068   2.252  -0.333  0.00  0.00    +0.000 C 
ATOM     14  O2  UNL     1       1.045   2.866  -0.377  0.00  0.00    +0.000 OA
BRANCH  13  15
ATOM     15  O1  UNL     1      -1.140   3.016   0.128  0.00  0.00    +0.000 OA
ATOM     16  H1  UNL     1      -1.039   3.970   0.465  0.00  0.00    +0.000 HD
ENDBRANCH  13  15
ENDBRANCH   1  13
BRANCH   1  17
ATOM     17  C3  UNL     1       0.708  -0.125  -0.170  0.00  0.00    +0.000 C 
BRANCH  17  18
ATOM     18  C4  UNL     1       2.081   0.128  -0.615  0.00  0.00    +0.000 A 
ATOM     19  C5  UNL     1       2.486   0.826  -1.728  0.00  0.00    +0.000 A 
ATOM     20  N1  UNL     1       3.840   0.814  -1.795  0.00  0.00    +0.000 N 
ATOM     21  C6  UNL     1       4.298   0.116  -0.736  0.00  0.00    +0.000 A 
ATOM     22  C7  UNL     1       5.567  -0.219  -0.301  0.00  0.00    +0.000 A 
ATOM     23  C8  UNL     1       5.785  -0.971   0.853  0.00  0.00    +0.000 A 
ATOM     24  C9  UNL     1       4.707  -1.401   1.596  0.00  0.00    +0.000 A 
ATOM     25  C10 UNL     1       3.432  -1.073   1.171  0.00  0.00    +0.000 A 
ATOM     26  C11 UNL     1       3.220  -0.317   0.008  0.00  0.00    +0.000 A 
ATOM     27  H6  UNL     1       4.429   1.273  -2.553  0.00  0.00    +0.000 HD
ENDBRANCH  17  18
ENDBRANCH   1  17
TORSDOF 5
