REMARK  Name = ./3D_structures\o26_MMV1578562_3D.pdb
REMARK  7 active torsions:
REMARK  status: ('A' for Active; 'I' for Inactive)
REMARK    1  A    between atoms: S1_2  and  N1_4
REMARK    2  A    between atoms: S1_2  and  C7_11
REMARK    3  A    between atoms: N1_4  and  C1_5
REMARK    4  A    between atoms: C10_14  and  N2_15
REMARK    5  A    between atoms: N2_15  and  C11_16
REMARK    6  A    between atoms: C11_16  and  N3_18
REMARK    7  A    between atoms: N3_18  and  C12_19
REMARK                            x       y       z     vdW  Elec       q    Type
REMARK                         _______ _______ _______ _____ _____    ______ ____
ROOT
ATOM      1  C7  UNL     1      -1.448  -0.395  -0.951  0.00  0.00    +0.000 A 
ATOM      2  C8  UNL     1      -0.494  -1.152  -0.335  0.00  0.00    +0.000 A 
ATOM      3  C9  UNL     1       0.429  -0.534   0.481  0.00  0.00    +0.000 A 
ATOM      4  C10 UNL     1       0.410   0.830   0.686  0.00  0.00    +0.000 A 
ATOM      5  C18 UNL     1      -0.591   1.566   0.031  0.00  0.00    +0.000 A 
ATOM      6  C19 UNL     1      -1.527   0.984  -0.788  0.00  0.00    +0.000 A 
ENDROOT
BRANCH   1   8
ATOM      7  O1  UNL     1      -3.024  -0.302  -3.118  0.00  0.00    +0.000 OA
ATOM      8  S1  UNL     1      -2.614  -1.189  -1.983  0.00  0.00    +0.000 S 
ATOM      9  O2  UNL     1      -1.966  -2.454  -2.530  0.00  0.00    +0.000 OA
BRANCH   8  10
ATOM     10  N1  UNL     1      -3.992  -1.666  -1.069  0.00  0.00    +0.000 N 
ATOM     11  H1  UNL     1      -4.259  -2.648  -0.984  0.00  0.00    +0.000 HD
BRANCH  10  12
ATOM     12  C1  UNL     1      -4.760  -0.665  -0.429  0.00  0.00    +0.000 A 
ATOM     13  C2  UNL     1      -5.148  -0.878   0.877  0.00  0.00    +0.000 A 
ATOM     14  C3  UNL     1      -5.894   0.055   1.554  0.00  0.00    +0.000 A 
ATOM     15  C4  UNL     1      -6.249   1.219   0.892  0.00  0.00    +0.000 A 
ATOM     16  C5  UNL     1      -5.885   1.471  -0.404  0.00  0.00    +0.000 A 
ATOM     17  C6  UNL     1      -5.137   0.511  -1.050  0.00  0.00    +0.000 A 
ENDBRANCH  10  12
ENDBRANCH   8  10
ENDBRANCH   1   8
BRANCH   4  18
ATOM     18  N2  UNL     1       1.349   1.515   1.490  0.00  0.00    +0.000 N 
ATOM     19  H9  UNL     1       0.978   2.171   2.226  0.00  0.00    +0.000 HD
BRANCH  18  20
ATOM     20  C11 UNL     1       2.740   1.372   1.364  0.00  0.00    +0.000 C 
ATOM     21  S2  UNL     1       3.750   2.157   2.421  0.00  0.00    +0.000 S 
BRANCH  20  22
ATOM     22  N3  UNL     1       3.294   0.540   0.378  0.00  0.00    +0.000 N 
ATOM     23  H10 UNL     1       2.642   0.021  -0.300  0.00  0.00    +0.000 HD
BRANCH  22  24
ATOM     24  C12 UNL     1       4.681   0.380   0.220  0.00  0.00    +0.000 A 
ATOM     25  C13 UNL     1       5.108  -0.909  -0.134  0.00  0.00    +0.000 A 
ATOM     26  C14 UNL     1       6.438  -1.163  -0.347  0.00  0.00    +0.000 A 
ATOM     27  C15 UNL     1       7.325  -0.127  -0.204  0.00  0.00    +0.000 A 
ATOM     28  C16 UNL     1       6.910   1.141   0.143  0.00  0.00    +0.000 A 
ATOM     29  C17 UNL     1       5.551   1.415   0.364  0.00  0.00    +0.000 A 
ENDBRANCH  22  24
ENDBRANCH  20  22
ENDBRANCH  18  20
ENDBRANCH   4  18
TORSDOF 7
