REMARK  Name = ./3D_structures\o27_MMV1578555_3D.pdb
REMARK  3 active torsions:
REMARK  status: ('A' for Active; 'I' for Inactive)
REMARK    1  A    between atoms: C4_5  and  N1_6
REMARK    2  A    between atoms: C5_7  and  C6_9
REMARK    3  A    between atoms: N3_11  and  C10_17
REMARK                            x       y       z     vdW  Elec       q    Type
REMARK                         _______ _______ _______ _____ _____    ______ ____
ROOT
ATOM      1  C6  UNL     1      -0.149  -0.326  -1.532  0.00  0.00    +0.000 A 
ATOM      2  N2  UNL     1       0.855  -0.096  -0.668  0.00  0.00    +0.000 NA
ATOM      3  N3  UNL     1       2.143  -0.101  -1.050  0.00  0.00    +0.000 N 
ATOM      4  C7  UNL     1       2.521  -0.336  -2.317  0.00  0.00    +0.000 A 
ATOM      5  O2  UNL     1       3.740  -0.337  -2.661  0.00  0.00    +0.000 OA
ATOM      6  C8  UNL     1       1.534  -0.579  -3.249  0.00  0.00    +0.000 A 
ATOM      7  C9  UNL     1       0.206  -0.571  -2.840  0.00  0.00    +0.000 A 
ATOM      8 CL1  UNL     1      -1.067  -0.876  -3.999  0.00  0.00    +0.000 Cl
ENDROOT
BRANCH   3   9
ATOM      9  C10 UNL     1       3.173   0.147  -0.105  0.00  0.00    +0.000 A 
ATOM     10  C11 UNL     1       3.874   1.332  -0.081  0.00  0.00    +0.000 A 
ATOM     11  C12 UNL     1       4.881   1.565   0.848  0.00  0.00    +0.000 A 
ATOM     12  C13 UNL     1       5.206   0.603   1.781  0.00  0.00    +0.000 A 
ATOM     13  C14 UNL     1       4.519  -0.577   1.769  0.00  0.00    +0.000 A 
ATOM     14  C15 UNL     1       3.519  -0.794   0.837  0.00  0.00    +0.000 A 
ENDBRANCH   3   9
BRANCH   1  16
ATOM     15  N1  UNL     1      -1.954  -0.074   0.216  0.00  0.00    +0.000 N 
ATOM     16  C5  UNL     1      -1.555  -0.319  -1.106  0.00  0.00    +0.000 C 
ATOM     17  O1  UNL     1      -2.420  -0.543  -1.975  0.00  0.00    +0.000 OA
ATOM     18  H3  UNL     1      -1.155   0.107   0.893  0.00  0.00    +0.000 HD
BRANCH  15  23
ATOM     19  F1  UNL     1      -7.016   0.114   2.551  0.00  0.00    +0.000 F 
ATOM     20  C1  UNL     1      -5.813   0.057   1.936  0.00  0.00    +0.000 A 
ATOM     21  C2  UNL     1      -4.680   0.278   2.706  0.00  0.00    +0.000 A 
ATOM     22  C3  UNL     1      -3.454   0.222   2.092  0.00  0.00    +0.000 A 
ATOM     23  C4  UNL     1      -3.263  -0.042   0.739  0.00  0.00    +0.000 A 
ATOM     24  C16 UNL     1      -4.407  -0.254   0.013  0.00  0.00    +0.000 A 
ATOM     25  C17 UNL     1      -5.673  -0.207   0.594  0.00  0.00    +0.000 A 
ENDBRANCH  15  23
ENDBRANCH   1  16
TORSDOF 3
