REMARK  Name = ./3D_structures\o28_MMV1578554_3D.pdb
REMARK  0 active torsions:
REMARK  status: ('A' for Active; 'I' for Inactive)
REMARK                            x       y       z     vdW  Elec       q    Type
REMARK                         _______ _______ _______ _____ _____    ______ ____
ROOT
ATOM      1 BR1  UNL     1       2.493   1.647   0.336  0.00  0.00    +0.000 Br
ATOM      2  C1  UNL     1       0.897   0.586   0.235  0.00  0.00    +0.000 C 
ATOM      3  C2  UNL     1       0.805  -0.727   0.261  0.00  0.00    +0.000 C 
ATOM      4 BR2  UNL     1       2.266  -1.929   0.409  0.00  0.00    +0.000 Br
ATOM      5  C3  UNL     1      -0.586  -1.097   0.158  0.00  0.00    +0.000 C 
ATOM      6  O1  UNL     1      -1.022  -2.274   0.153  0.00  0.00    +0.000 OA
ATOM      7  N1  UNL     1      -1.342   0.081   0.067  0.00  0.00    +0.000 N 
ATOM      8  C4  UNL     1      -0.440   1.161   0.112  0.00  0.00    +0.000 C 
ATOM      9  O2  UNL     1      -0.701   2.400   0.060  0.00  0.00    +0.000 OA
ATOM     10  H1  UNL     1      -2.370   0.152  -0.017  0.00  0.00    +0.000 HD
ENDROOT
TORSDOF 0
