REMARK  Name = ./3D_structures\o29_MMV1634402_3D.pdb
REMARK  22 active torsions:
REMARK  status: ('A' for Active; 'I' for Inactive)
REMARK    1  A    between atoms: C1_2  and  C2_5
REMARK    2  A    between atoms: C4_7  and  N6_28
REMARK    3  A    between atoms: C5_8  and  O1_9
REMARK    4  A    between atoms: O1_9  and  C6_10
REMARK    5  A    between atoms: C10_15  and  N2_17
REMARK    6  A    between atoms: C12_18  and  C13_20
REMARK    7  A    between atoms: C13_20  and  C14_21
REMARK    8  A    between atoms: C14_21  and  C15_22
REMARK    9  A    between atoms: C15_22  and  C16_23
REMARK   10  A    between atoms: C16_23  and  N3_24
REMARK   11  A    between atoms: C18_29  and  C19_31
REMARK   12  A    between atoms: C21_35  and  C23_37
REMARK   13  A    between atoms: N9_39  and  C24_40
REMARK   14  A    between atoms: C25_41  and  O5_42
REMARK   15  A    between atoms: O5_42  and  C26_43
REMARK   16  A    between atoms: C30_48  and  N11_56
REMARK   17  A    between atoms: C32_50  and  C34_52
REMARK   18  A    between atoms: C35_57  and  C36_59
REMARK   19  A    between atoms: C36_59  and  C37_60
REMARK   20  A    between atoms: C37_60  and  C38_61
REMARK   21  A    between atoms: C38_61  and  C39_62
REMARK   22  A    between atoms: C39_62  and  N12_63
REMARK                            x       y       z     vdW  Elec       q    Type
REMARK                         _______ _______ _______ _____ _____    ______ ____
ROOT
ATOM      1  C19 UNL     1      -0.485  -3.363  -0.635  0.00  0.00    +0.000 C 
ATOM      2  N7  UNL     1      -0.683  -4.585  -0.124  0.00  0.00    +0.000 NA
ATOM      3  C20 UNL     1       0.352  -5.423   0.097  0.00  0.00    +0.000 C 
ATOM      4  N8  UNL     1       1.628  -5.103  -0.170  0.00  0.00    +0.000 NA
ATOM      5  C21 UNL     1       1.880  -3.885  -0.687  0.00  0.00    +0.000 C 
ATOM      6  C22 UNL     1       0.828  -3.037  -0.910  0.00  0.00    +0.000 C 
ENDROOT
BRANCH   1   8
ATOM      7  N6  UNL     1      -2.892  -2.588  -0.609  0.00  0.00    +0.000 N 
ATOM      8  C18 UNL     1      -1.527  -2.400  -0.969  0.00  0.00    +0.000 C 
ATOM      9  O3  UNL     1      -1.230  -1.354  -1.611  0.00  0.00    +0.000 OA
ATOM     10  H24 UNL     1      -3.097  -3.462  -0.057  0.00  0.00    +0.000 HD
BRANCH   7  13
ATOM     11  C2  UNL     1      -4.881  -0.121  -2.521  0.00  0.00    +0.000 A 
ATOM     12  C3  UNL     1      -3.841  -0.929  -2.058  0.00  0.00    +0.000 A 
ATOM     13  C4  UNL     1      -3.960  -1.719  -0.957  0.00  0.00    +0.000 A 
ATOM     14  C5  UNL     1      -5.170  -1.748  -0.222  0.00  0.00    +0.000 A 
ATOM     15  C10 UNL     1      -6.252  -0.942  -0.664  0.00  0.00    +0.000 A 
ATOM     16  C11 UNL     1      -6.046  -0.168  -1.793  0.00  0.00    +0.000 A 
BRANCH  11  18
ATOM     17  F1  UNL     1      -3.939   1.808  -3.426  0.00  0.00    +0.000 F 
ATOM     18  C1  UNL     1      -4.713   0.721  -3.739  0.00  0.00    +0.000 C 
ATOM     19  F2  UNL     1      -5.901   1.048  -4.312  0.00  0.00    +0.000 F 
ATOM     20  F3  UNL     1      -3.973  -0.035  -4.673  0.00  0.00    +0.000 F 
ENDBRANCH  11  18
BRANCH  15  21
ATOM     21  N2  UNL     1      -7.510  -0.980  -0.043  0.00  0.00    +0.000 N 
ATOM     22  C12 UNL     1      -8.447   0.129  -0.064  0.00  0.00    +0.000 C 
ATOM     23  O2  UNL     1      -8.134   1.196  -0.623  0.00  0.00    +0.000 OA
ATOM     24  H11 UNL     1      -7.822  -1.826   0.454  0.00  0.00    +0.000 HD
BRANCH  22  25
ATOM     25  C13 UNL     1      -9.737  -0.093   0.602  0.00  0.00    +0.000 C 
BRANCH  25  26
ATOM     26  C14 UNL     1     -10.257   1.138   1.245  0.00  0.00    +0.000 C 
BRANCH  26  27
ATOM     27  C15 UNL     1     -10.524   2.353   0.427  0.00  0.00    +0.000 C 
BRANCH  27  28
ATOM     28  C16 UNL     1     -11.038   3.466   1.397  0.00  0.00    +0.000 C 
BRANCH  28  29
ATOM     29  N3  UNL     1     -11.210   4.659   0.636  0.00  0.00    +0.000 N 
ATOM     30  C17 UNL     1     -12.199   4.863  -0.360  0.00  0.00    +0.000 C 
ATOM     31  N4  UNL     1     -13.143   4.089  -0.508  0.00  0.00    +0.000 NA
ATOM     32  N5  UNL     1     -12.069   6.048  -1.205  0.00  0.00    +0.000 N 
ATOM     33  H20 UNL     1     -10.542   5.446   0.828  0.00  0.00    +0.000 HD
ATOM     34  H21 UNL     1     -13.519   3.260  -0.145  0.00  0.00    +0.000 HD
ATOM     35  H22 UNL     1     -11.254   6.063  -1.855  0.00  0.00    +0.000 HD
ATOM     36  H23 UNL     1     -12.752   6.829  -1.152  0.00  0.00    +0.000 HD
ENDBRANCH  28  29
ENDBRANCH  27  28
ENDBRANCH  26  27
ENDBRANCH  25  26
ENDBRANCH  22  25
ENDBRANCH  15  21
BRANCH  14  37
ATOM     37  O1  UNL     1      -5.337  -2.514   0.899  0.00  0.00    +0.000 OA
BRANCH  37  38
ATOM     38  C6  UNL     1      -5.721  -3.793   1.124  0.00  0.00    +0.000 C 
ATOM     39  C7  UNL     1      -4.713  -4.652   1.875  0.00  0.00    +0.000 C 
ATOM     40  N1  UNL     1      -5.306  -4.958   3.173  0.00  0.00    +0.000 NA
ATOM     41  C8  UNL     1      -6.721  -4.959   3.030  0.00  0.00    +0.000 C 
ATOM     42  C9  UNL     1      -7.009  -4.018   1.881  0.00  0.00    +0.000 C 
ATOM     43  H5  UNL     1      -4.975  -4.352   3.939  0.00  0.00    +0.000 HD
ENDBRANCH  37  38
ENDBRANCH  14  37
ENDBRANCH   7  13
ENDBRANCH   1   8
BRANCH   5  44
ATOM     44  C23 UNL     1       3.238  -3.474  -1.091  0.00  0.00    +0.000 C 
ATOM     45  O4  UNL     1       4.024  -4.326  -1.483  0.00  0.00    +0.000 OA
ATOM     46  N9  UNL     1       3.608  -2.099  -1.016  0.00  0.00    +0.000 N 
ATOM     47  H27 UNL     1       2.846  -1.471  -0.622  0.00  0.00    +0.000 HD
BRANCH  46  48
ATOM     48  C24 UNL     1       4.864  -1.563  -1.406  0.00  0.00    +0.000 A 
ATOM     49  C25 UNL     1       5.145  -0.269  -0.969  0.00  0.00    +0.000 A 
ATOM     50  C30 UNL     1       6.300   0.354  -1.435  0.00  0.00    +0.000 A 
ATOM     51  C31 UNL     1       7.142  -0.274  -2.294  0.00  0.00    +0.000 A 
ATOM     52  C32 UNL     1       6.825  -1.551  -2.697  0.00  0.00    +0.000 A 
ATOM     53  C33 UNL     1       5.685  -2.229  -2.268  0.00  0.00    +0.000 A 
BRANCH  52  54
ATOM     54  C34 UNL     1       7.750  -2.260  -3.659  0.00  0.00    +0.000 C 
ATOM     55  F4  UNL     1       8.714  -2.967  -3.007  0.00  0.00    +0.000 F 
ATOM     56  F5  UNL     1       6.965  -3.092  -4.416  0.00  0.00    +0.000 F 
ATOM     57  F6  UNL     1       8.334  -1.346  -4.499  0.00  0.00    +0.000 F 
ENDBRANCH  52  54
BRANCH  50  58
ATOM     58  N11 UNL     1       6.552   1.671  -0.976  0.00  0.00    +0.000 N 
ATOM     59  C35 UNL     1       7.843   2.259  -1.011  0.00  0.00    +0.000 C 
ATOM     60  O6  UNL     1       8.867   1.668  -1.451  0.00  0.00    +0.000 OA
ATOM     61  H38 UNL     1       5.761   2.271  -0.588  0.00  0.00    +0.000 HD
BRANCH  59  62
ATOM     62  C36 UNL     1       7.999   3.658  -0.485  0.00  0.00    +0.000 C 
BRANCH  62  63
ATOM     63  C37 UNL     1       9.485   3.880  -0.101  0.00  0.00    +0.000 C 
BRANCH  63  64
ATOM     64  C38 UNL     1       9.765   2.931   1.015  0.00  0.00    +0.000 C 
BRANCH  64  65
ATOM     65  C39 UNL     1      11.137   2.986   1.595  0.00  0.00    +0.000 C 
BRANCH  65  66
ATOM     66  N12 UNL     1      12.146   2.689   0.646  0.00  0.00    +0.000 N 
ATOM     67  C40 UNL     1      12.436   3.595  -0.425  0.00  0.00    +0.000 C 
ATOM     68  N13 UNL     1      12.394   4.861  -0.255  0.00  0.00    +0.000 NA
ATOM     69  N14 UNL     1      12.796   3.054  -1.697  0.00  0.00    +0.000 N 
ATOM     70  H47 UNL     1      12.700   1.792   0.739  0.00  0.00    +0.000 HD
ATOM     71  H48 UNL     1      12.159   5.348   0.617  0.00  0.00    +0.000 HD
ATOM     72  H49 UNL     1      12.392   3.449  -2.566  0.00  0.00    +0.000 HD
ATOM     73  H50 UNL     1      13.459   2.273  -1.736  0.00  0.00    +0.000 HD
ENDBRANCH  65  66
ENDBRANCH  64  65
ENDBRANCH  63  64
ENDBRANCH  62  63
ENDBRANCH  59  62
ENDBRANCH  50  58
BRANCH  49  74
ATOM     74  O5  UNL     1       4.292   0.398  -0.052  0.00  0.00    +0.000 OA
BRANCH  74  75
ATOM     75  C26 UNL     1       4.677   0.495   1.302  0.00  0.00    +0.000 C 
ATOM     76  C27 UNL     1       3.682   1.192   2.129  0.00  0.00    +0.000 C 
ATOM     77  N10 UNL     1       3.925   0.678   3.480  0.00  0.00    +0.000 NA
ATOM     78  C28 UNL     1       4.190  -0.733   3.322  0.00  0.00    +0.000 C 
ATOM     79  C29 UNL     1       4.890  -0.838   1.998  0.00  0.00    +0.000 C 
ATOM     80  H31 UNL     1       4.833   1.111   3.804  0.00  0.00    +0.000 HD
ENDBRANCH  74  75
ENDBRANCH  49  74
ENDBRANCH  46  48
ENDBRANCH   5  44
TORSDOF 22
