REMARK  Name = ./3D_structures\o2_MMV1782140_3D.pdb
REMARK  2 active torsions:
REMARK  status: ('A' for Active; 'I' for Inactive)
REMARK    1  A    between atoms: C4_5  and  C5_6
REMARK    2  A    between atoms: C7_12  and  C8_14
REMARK                            x       y       z     vdW  Elec       q    Type
REMARK                         _______ _______ _______ _____ _____    ______ ____
ROOT
ATOM      1  C5  UNL     1       2.212  -1.184  -0.208  0.00  0.00    +0.000 A 
ATOM      2  N1  UNL     1       1.980  -2.490  -0.380  0.00  0.00    +0.000 NA
ATOM      3  N2  UNL     1       0.677  -2.688  -0.455  0.00  0.00    +0.000 NA
ATOM      4  C6  UNL     1       0.086  -1.492  -0.329  0.00  0.00    +0.000 A 
ATOM      5  O1  UNL     1       1.030  -0.606  -0.182  0.00  0.00    +0.000 OA
ATOM      6  N3  UNL     1      -1.322  -1.263  -0.356  0.00  0.00    +0.000 N 
ATOM      7  C7  UNL     1      -1.876   0.027  -0.217  0.00  0.00    +0.000 C 
ATOM      8  O2  UNL     1      -1.056   0.981  -0.066  0.00  0.00    +0.000 OA
ATOM      9  H3  UNL     1      -2.001  -2.064  -0.483  0.00  0.00    +0.000 HD
ENDROOT
BRANCH   1  14
ATOM     10 CL1  UNL     1       7.427   1.734   0.360  0.00  0.00    +0.000 Cl
ATOM     11  C1  UNL     1       5.935   0.839   0.190  0.00  0.00    +0.000 A 
ATOM     12  C2  UNL     1       4.728   1.535   0.230  0.00  0.00    +0.000 A 
ATOM     13  C3  UNL     1       3.538   0.859   0.099  0.00  0.00    +0.000 A 
ATOM     14  C4  UNL     1       3.512  -0.510  -0.073  0.00  0.00    +0.000 A 
ATOM     15  C14 UNL     1       4.682  -1.201  -0.113  0.00  0.00    +0.000 A 
ATOM     16  C15 UNL     1       5.881  -0.523   0.019  0.00  0.00    +0.000 A 
ENDBRANCH   1  14
BRANCH   7  17
ATOM     17  C8  UNL     1      -3.307   0.291  -0.241  0.00  0.00    +0.000 A 
ATOM     18  C9  UNL     1      -4.274  -0.670  -0.398  0.00  0.00    +0.000 A 
ATOM     19  C10 UNL     1      -5.640  -0.363  -0.414  0.00  0.00    +0.000 A 
ATOM     20  C11 UNL     1      -6.058   0.931  -0.269  0.00  0.00    +0.000 A 
ATOM     21  F1  UNL     1      -7.383   1.218  -0.285  0.00  0.00    +0.000 F 
ATOM     22  C12 UNL     1      -5.095   1.904  -0.110  0.00  0.00    +0.000 A 
ATOM     23  C13 UNL     1      -3.751   1.605  -0.095  0.00  0.00    +0.000 A 
ENDBRANCH   7  17
TORSDOF 2
