REMARK  Name = ./3D_structures\o30_MMV1634399_3D.pdb
REMARK  6 active torsions:
REMARK  status: ('A' for Active; 'I' for Inactive)
REMARK    1  A    between atoms: O1_1  and  C1_2
REMARK    2  A    between atoms: O1_1  and  C21_24
REMARK    3  A    between atoms: N1_6  and  C13_16
REMARK    4  A    between atoms: C8_10  and  C12_15
REMARK    5  A    between atoms: C13_16  and  C14_17
REMARK    6  A    between atoms: C14_17  and  C15_18
REMARK                            x       y       z     vdW  Elec       q    Type
REMARK                         _______ _______ _______ _____ _____    ______ ____
ROOT
ATOM      1  C1  UNL     1      -2.324   0.523  -0.035  0.00  0.00    +0.000 A 
ATOM      2  C2  UNL     1      -1.109   0.171  -0.646  0.00  0.00    +0.000 A 
ATOM      3  C3  UNL     1      -0.463  -0.996  -0.319  0.00  0.00    +0.000 A 
ATOM      4  C4  UNL     1       0.717  -1.353  -0.924  0.00  0.00    +0.000 A 
ATOM      5  N1  UNL     1       1.529  -0.636  -1.825  0.00  0.00    +0.000 N 
ATOM      6  C5  UNL     1       2.312  -1.702  -2.506  0.00  0.00    +0.000 C 
ATOM      7  C6  UNL     1       2.542  -2.740  -1.437  0.00  0.00    +0.000 C 
ATOM      8  C7  UNL     1       1.319  -2.548  -0.591  0.00  0.00    +0.000 A 
ATOM      9  C8  UNL     1       0.712  -3.358   0.360  0.00  0.00    +0.000 A 
ATOM     10  N2  UNL     1      -0.438  -3.011   0.958  0.00  0.00    +0.000 NA
ATOM     11  C9  UNL     1      -1.042  -1.842   0.638  0.00  0.00    +0.000 A 
ATOM     12  C10 UNL     1      -2.238  -1.498   1.239  0.00  0.00    +0.000 A 
ATOM     13  C11 UNL     1      -2.865  -0.322   0.898  0.00  0.00    +0.000 A 
ATOM     14  C12 UNL     1       1.415  -4.642   0.682  0.00  0.00    +0.000 C 
ENDROOT
BRANCH   1  15
ATOM     15  O1  UNL     1      -2.899   1.708  -0.420  0.00  0.00    +0.000 OA
BRANCH  15  16
ATOM     16  C21 UNL     1      -4.102   2.128   0.125  0.00  0.00    +0.000 A 
ATOM     17  C22 UNL     1      -4.185   2.898   1.257  0.00  0.00    +0.000 A 
ATOM     18  C23 UNL     1      -5.405   3.309   1.787  0.00  0.00    +0.000 A 
ATOM     19  C24 UNL     1      -6.529   2.914   1.133  0.00  0.00    +0.000 A 
ATOM     20  C25 UNL     1      -6.492   2.136  -0.015  0.00  0.00    +0.000 A 
ATOM     21  C26 UNL     1      -5.268   1.739  -0.524  0.00  0.00    +0.000 A 
ENDBRANCH  15  16
ENDBRANCH   1  15
BRANCH   5  22
ATOM     22  C13 UNL     1       1.712   0.721  -2.154  0.00  0.00    +0.000 C 
BRANCH  22  23
ATOM     23  C14 UNL     1       3.136   1.233  -1.766  0.00  0.00    +0.000 C 
BRANCH  23  24
ATOM     24  C15 UNL     1       3.401   1.148  -0.333  0.00  0.00    +0.000 A 
ATOM     25  C16 UNL     1       2.946   2.219   0.456  0.00  0.00    +0.000 A 
ATOM     26  C17 UNL     1       3.186   2.197   1.812  0.00  0.00    +0.000 A 
ATOM     27  C18 UNL     1       3.860   1.159   2.432  0.00  0.00    +0.000 A 
ATOM     28  C19 UNL     1       4.299   0.118   1.646  0.00  0.00    +0.000 A 
ATOM     29  C20 UNL     1       4.070   0.118   0.287  0.00  0.00    +0.000 A 
ENDBRANCH  23  24
ENDBRANCH  22  23
ENDBRANCH   5  22
TORSDOF 5
