REMARK  Name = ./3D_structures\o31_MMV000051_3D.pdb
REMARK  14 active torsions:
REMARK  status: ('A' for Active; 'I' for Inactive)
REMARK    1  A    between atoms: C1_1  and  C2_2
REMARK    2  A    between atoms: C2_2  and  C3_3
REMARK    3  A    between atoms: C3_3  and  C4_4
REMARK    4  A    between atoms: C6_6  and  C9_10
REMARK    5  A    between atoms: N1_7  and  C7_8
REMARK    6  A    between atoms: N2_12  and  C10_13
REMARK    7  A    between atoms: C10_13  and  C11_14
REMARK    8  A    between atoms: C10_13  and  C13_17
REMARK    9  A    between atoms: C11_14  and  C12_15
REMARK   10  A    between atoms: C14_19  and  S1_20
REMARK   11  A    between atoms: S1_20  and  C15_21
REMARK   12  A    between atoms: C16_22  and  O3_23
REMARK   13  A    between atoms: C17_24  and  O4_25
REMARK   14  A    between atoms: C18_26  and  O5_27
REMARK                            x       y       z     vdW  Elec       q    Type
REMARK                         _______ _______ _______ _____ _____    ______ ____
ROOT
ATOM      1  C10 UNL     1      -1.697  -1.513  -0.377  0.00  0.00    +0.000 C 
ENDROOT
BRANCH   1   2
ATOM      2  C13 UNL     1      -2.841  -0.651   0.097  0.00  0.00    +0.000 C 
ATOM      3  O2  UNL     1      -3.098   0.446  -0.701  0.00  0.00    +0.000 OA
ATOM      4  C14 UNL     1      -3.896   1.322   0.035  0.00  0.00    +0.000 C 
ATOM      5  C16 UNL     1      -5.182   0.726   0.511  0.00  0.00    +0.000 C 
ATOM      6  C17 UNL     1      -4.992  -0.588   1.264  0.00  0.00    +0.000 C 
ATOM      7  C18 UNL     1      -4.103  -1.430   0.331  0.00  0.00    +0.000 C 
BRANCH   4   8
ATOM      8  S1  UNL     1      -2.983   1.960   1.469  0.00  0.00    +0.000 S 
ATOM      9  C15 UNL     1      -1.617   2.993   0.907  0.00  0.00    +0.000 C 
ENDBRANCH   4   8
BRANCH   5  10
ATOM     10  O3  UNL     1      -5.853   1.671   1.253  0.00  0.00    +0.000 OA
ATOM     11  H29 UNL     1      -6.780   1.861   0.913  0.00  0.00    +0.000 HD
ENDBRANCH   5  10
BRANCH   6  12
ATOM     12  O4  UNL     1      -6.236  -1.216   1.280  0.00  0.00    +0.000 OA
ATOM     13  H31 UNL     1      -6.320  -1.755   2.098  0.00  0.00    +0.000 HD
ENDBRANCH   6  12
BRANCH   7  14
ATOM     14  O5  UNL     1      -4.887  -1.526  -0.844  0.00  0.00    +0.000 OA
ATOM     15  H33 UNL     1      -5.409  -2.379  -0.814  0.00  0.00    +0.000 HD
ENDBRANCH   7  14
ENDBRANCH   1   2
BRANCH   1  18
ATOM     16  C9  UNL     1       0.698  -1.060   0.317  0.00  0.00    +0.000 C 
ATOM     17  O1  UNL     1       0.646  -2.015   1.136  0.00  0.00    +0.000 OA
ATOM     18  N2  UNL     1      -0.455  -0.799  -0.440  0.00  0.00    +0.000 N 
ATOM     19  H17 UNL     1      -0.404   0.005  -1.127  0.00  0.00    +0.000 HD
BRANCH  16  22
ATOM     20  C4  UNL     1       3.965  -0.116  -1.031  0.00  0.00    +0.000 C 
ATOM     21  C5  UNL     1       2.463  -0.300  -1.268  0.00  0.00    +0.000 C 
ATOM     22  C6  UNL     1       1.916  -0.225   0.137  0.00  0.00    +0.000 C 
ATOM     23  N1  UNL     1       2.947  -0.691   1.026  0.00  0.00    +0.000 NA
ATOM     24  C7  UNL     1       3.137   0.135   2.177  0.00  0.00    +0.000 C 
ATOM     25  C8  UNL     1       4.143  -0.884   0.238  0.00  0.00    +0.000 C 
BRANCH  20  26
ATOM     26  C3  UNL     1       4.319   1.315  -0.808  0.00  0.00    +0.000 C 
BRANCH  26  28
ATOM     27  C1  UNL     1       6.121   2.914  -0.369  0.00  0.00    +0.000 C 
ATOM     28  C2  UNL     1       5.803   1.438  -0.586  0.00  0.00    +0.000 C 
ENDBRANCH  26  28
ENDBRANCH  20  26
ENDBRANCH  16  22
ENDBRANCH   1  18
BRANCH   1  29
ATOM     29  C11 UNL     1      -2.094  -2.186  -1.655  0.00  0.00    +0.000 C 
ATOM     30  C12 UNL     1      -1.082  -3.205  -2.126  0.00  0.00    +0.000 C 
ATOM     31 CL1  UNL     1      -2.518  -1.036  -2.942  0.00  0.00    +0.000 Cl
ENDBRANCH   1  29
TORSDOF 10
