REMARK  Name = ./3D_structures\o32_MMV002287_3D.pdb
REMARK  6 active torsions:
REMARK  status: ('A' for Active; 'I' for Inactive)
REMARK    1  A    between atoms: C1_1  and  C2_2
REMARK    2  A    between atoms: C2_2  and  O1_3
REMARK    3  A    between atoms: C2_2  and  C3_4
REMARK    4  A    between atoms: C3_4  and  N1_5
REMARK    5  A    between atoms: C4_6  and  C7_13
REMARK    6  A    between atoms: C6_9  and  N3_10
REMARK                            x       y       z     vdW  Elec       q    Type
REMARK                         _______ _______ _______ _____ _____    ______ ____
ROOT
ATOM      1  N1  UNL     1      -0.706  -0.116   0.339  0.00  0.00    +0.000 N 
ATOM      2  C4  UNL     1      -1.526   0.890   0.006  0.00  0.00    +0.000 A 
ATOM      3  N2  UNL     1      -2.540   0.357  -0.690  0.00  0.00    +0.000 NA
ATOM      4  C5  UNL     1      -2.385  -0.961  -0.809  0.00  0.00    +0.000 A 
ATOM      5  C6  UNL     1      -1.188  -1.268  -0.136  0.00  0.00    +0.000 A 
ATOM      6  C7  UNL     1      -1.406   2.349   0.314  0.00  0.00    +0.000 C 
ENDROOT
BRANCH   5   7
ATOM      7  N3  UNL     1      -0.678  -2.601  -0.026  0.00  0.00    +0.000 N 
ATOM      8  O2  UNL     1       0.469  -2.880   0.638  0.00  0.00    +0.000 OA
ATOM      9  O3  UNL     1      -1.297  -3.542  -0.551  0.00  0.00    +0.000 OA
ENDBRANCH   5   7
BRANCH   1  10
ATOM     10  C3  UNL     1       0.493   0.045   1.099  0.00  0.00    +0.000 C 
BRANCH  10  12
ATOM     11  C1  UNL     1       2.162  -0.559  -0.715  0.00  0.00    +0.000 C 
ATOM     12  C2  UNL     1       1.718   0.390   0.329  0.00  0.00    +0.000 C 
BRANCH  12  13
ATOM     13  O1  UNL     1       1.666   1.662  -0.234  0.00  0.00    +0.000 OA
ATOM     14  H5  UNL     1       1.832   1.676  -1.193  0.00  0.00    +0.000 HD
ENDBRANCH  12  13
ENDBRANCH  10  12
ENDBRANCH   1  10
TORSDOF 4
