REMARK  Name = ./3D_structures\o34_MMV687801_3D.pdb
REMARK  13 active torsions:
REMARK  status: ('A' for Active; 'I' for Inactive)
REMARK    1  A    between atoms: C1_1  and  C2_2
REMARK    2  A    between atoms: C2_2  and  C3_3
REMARK    3  A    between atoms: C3_3  and  C4_4
REMARK    4  A    between atoms: C3_3  and  N1_6
REMARK    5  A    between atoms: C4_4  and  O1_5
REMARK    6  A    between atoms: N1_6  and  C5_7
REMARK    7  A    between atoms: C5_7  and  C6_8
REMARK    8  A    between atoms: C6_8  and  N2_9
REMARK    9  A    between atoms: N2_9  and  C7_10
REMARK   10  A    between atoms: C7_10  and  C8_11
REMARK   11  A    between atoms: C7_10  and  C10_13
REMARK   12  A    between atoms: C8_11  and  C9_12
REMARK   13  A    between atoms: C10_13  and  O2_14
REMARK                            x       y       z     vdW  Elec       q    Type
REMARK                         _______ _______ _______ _____ _____    ______ ____
ROOT
ATOM      1  C5  UNL     1      -0.626   0.272  -0.329  0.00  0.00    +0.000 C 
ENDROOT
BRANCH   1   2
ATOM      2  N1  UNL     1      -1.574  -0.043   0.691  0.00  0.00    +0.000 NA
ATOM      3  H10 UNL     1      -1.418  -0.940   1.157  0.00  0.00    +0.000 HD
BRANCH   2   4
ATOM      4  C3  UNL     1      -2.935   0.223   0.352  0.00  0.00    +0.000 C 
BRANCH   4   6
ATOM      5  C1  UNL     1      -4.835  -0.228  -1.179  0.00  0.00    +0.000 C 
ATOM      6  C2  UNL     1      -3.398  -0.602  -0.798  0.00  0.00    +0.000 C 
ENDBRANCH   4   6
BRANCH   4   7
ATOM      7  C4  UNL     1      -3.778   0.055   1.601  0.00  0.00    +0.000 C 
BRANCH   7   8
ATOM      8  O1  UNL     1      -5.116   0.289   1.415  0.00  0.00    +0.000 OA
ATOM      9  H9  UNL     1      -5.657  -0.371   1.927  0.00  0.00    +0.000 HD
ENDBRANCH   7   8
ENDBRANCH   4   7
ENDBRANCH   2   4
ENDBRANCH   1   2
BRANCH   1  10
ATOM     10  C6  UNL     1       0.808   0.011   0.156  0.00  0.00    +0.000 C 
BRANCH  10  11
ATOM     11  N2  UNL     1       1.678   0.356  -0.910  0.00  0.00    +0.000 NA
ATOM     12  H15 UNL     1       1.427   1.191  -1.449  0.00  0.00    +0.000 HD
BRANCH  11  13
ATOM     13  C7  UNL     1       3.091   0.185  -0.650  0.00  0.00    +0.000 C 
BRANCH  13  14
ATOM     14  C8  UNL     1       3.480   1.103   0.471  0.00  0.00    +0.000 C 
ATOM     15  C9  UNL     1       4.951   0.985   0.779  0.00  0.00    +0.000 C 
ENDBRANCH  13  14
BRANCH  13  16
ATOM     16  C10 UNL     1       3.441  -1.238  -0.349  0.00  0.00    +0.000 C 
BRANCH  16  17
ATOM     17  O2  UNL     1       4.801  -1.345  -0.121  0.00  0.00    +0.000 OA
ATOM     18  H24 UNL     1       5.161  -2.245  -0.304  0.00  0.00    +0.000 HD
ENDBRANCH  16  17
ENDBRANCH  13  16
ENDBRANCH  11  13
ENDBRANCH  10  11
ENDBRANCH   1  10
TORSDOF 11
