REMARK  Name = ./3D_structures\o35_MMV1593531_3D.pdb
REMARK  6 active torsions:
REMARK  status: ('A' for Active; 'I' for Inactive)
REMARK    1  A    between atoms: O1_1  and  C1_2
REMARK    2  A    between atoms: C2_3  and  C3_4
REMARK    3  A    between atoms: N1_6  and  C4_7
REMARK    4  A    between atoms: C7_10  and  C10_13
REMARK    5  A    between atoms: C17_22  and  C18_23
REMARK    6  A    between atoms: C18_23  and  C19_24
REMARK                            x       y       z     vdW  Elec       q    Type
REMARK                         _______ _______ _______ _____ _____    ______ ____
ROOT
ATOM      1  C3  UNL     1       0.358   0.652  -0.856  0.00  0.00    +0.000 C 
ATOM      2  O2  UNL     1       0.007   0.909  -2.044  0.00  0.00    +0.000 OA
ATOM      3  N1  UNL     1      -0.642   0.323   0.074  0.00  0.00    +0.000 N 
ATOM      4  H2  UNL     1      -0.286   0.117   1.062  0.00  0.00    +0.000 HD
ENDROOT
BRANCH   1   6
ATOM      5  C1  UNL     1       2.424   0.500   0.610  0.00  0.00    +0.000 C 
ATOM      6  C2  UNL     1       1.805   0.713  -0.511  0.00  0.00    +0.000 C 
ATOM      7  C16 UNL     1       2.819   1.060  -1.507  0.00  0.00    +0.000 C 
ATOM      8  O3  UNL     1       2.653   1.343  -2.722  0.00  0.00    +0.000 OA
ATOM      9  O4  UNL     1       4.047   1.034  -0.896  0.00  0.00    +0.000 OA
ATOM     10  C17 UNL     1       3.872   0.687   0.443  0.00  0.00    +0.000 C 
BRANCH   5  11
ATOM     11  O1  UNL     1       1.805   0.143   1.811  0.00  0.00    +0.000 OA
ATOM     12  H1  UNL     1       2.261   0.128   2.693  0.00  0.00    +0.000 HD
ENDBRANCH   5  11
BRANCH  10  13
ATOM     13  C18 UNL     1       4.534  -0.622   0.799  0.00  0.00    +0.000 C 
BRANCH  13  14
ATOM     14  C19 UNL     1       5.991  -0.601   0.682  0.00  0.00    +0.000 A 
ATOM     15  C20 UNL     1       6.864  -0.260   1.685  0.00  0.00    +0.000 A 
ATOM     16  C21 UNL     1       8.234  -0.253   1.532  0.00  0.00    +0.000 A 
ATOM     17  C22 UNL     1       8.781  -0.609   0.296  0.00  0.00    +0.000 A 
ATOM     18  C23 UNL     1       7.922  -0.957  -0.731  0.00  0.00    +0.000 A 
ATOM     19  C24 UNL     1       6.556  -0.951  -0.537  0.00  0.00    +0.000 A 
ENDBRANCH  13  14
ENDBRANCH  10  13
ENDBRANCH   1   6
BRANCH   3  20
ATOM     20  C4  UNL     1      -2.041   0.238  -0.174  0.00  0.00    +0.000 A 
ATOM     21  C5  UNL     1      -2.643   0.276  -1.401  0.00  0.00    +0.000 A 
ATOM     22  C6  UNL     1      -4.041   0.199  -1.530  0.00  0.00    +0.000 A 
ATOM     23  C7  UNL     1      -4.873   0.082  -0.442  0.00  0.00    +0.000 A 
ATOM     24  C8  UNL     1      -4.272   0.043   0.796  0.00  0.00    +0.000 A 
ATOM     25  C9  UNL     1      -2.908   0.118   0.928  0.00  0.00    +0.000 A 
BRANCH  23  26
ATOM     26  C10 UNL     1      -6.323   0.002  -0.560  0.00  0.00    +0.000 A 
ATOM     27  C11 UNL     1      -7.046  -0.721   0.368  0.00  0.00    +0.000 A 
ATOM     28  C12 UNL     1      -8.427  -0.802   0.263  0.00  0.00    +0.000 A 
ATOM     29  C13 UNL     1      -9.114  -0.176  -0.751  0.00  0.00    +0.000 A 
ATOM     30  C14 UNL     1      -8.399   0.549  -1.684  0.00  0.00    +0.000 A 
ATOM     31  C15 UNL     1      -7.017   0.628  -1.576  0.00  0.00    +0.000 A 
ENDBRANCH  23  26
ENDBRANCH   3  20
TORSDOF 6
