REMARK  Name = ./3D_structures\o36_MMV1581558_3D.pdb
REMARK  4 active torsions:
REMARK  status: ('A' for Active; 'I' for Inactive)
REMARK    1  A    between atoms: C1_1  and  C2_2
REMARK    2  A    between atoms: C6_6  and  C7_7
REMARK    3  A    between atoms: C8_8  and  C9_9
REMARK    4  A    between atoms: C11_14  and  C19_22
REMARK                            x       y       z     vdW  Elec       q    Type
REMARK                         _______ _______ _______ _____ _____    ______ ____
ROOT
ATOM      1  C9  UNL     1      -1.531  -0.591   0.018  0.00  0.00    +0.000 C 
ATOM      2  O1  UNL     1      -0.611  -1.448   0.313  0.00  0.00    +0.000 OA
ATOM      3  N1  UNL     1      -1.077   0.742  -0.172  0.00  0.00    +0.000 N 
ATOM      4  C10 UNL     1       0.326   1.056  -0.042  0.00  0.00    +0.000 A 
ATOM      5  N2  UNL     1       1.187   0.093   0.256  0.00  0.00    +0.000 NA
ATOM      6  C11 UNL     1       2.502   0.338   0.387  0.00  0.00    +0.000 A 
ATOM      7  C12 UNL     1       3.000   1.588   0.218  0.00  0.00    +0.000 A 
ATOM      8  C13 UNL     1       2.131   2.626  -0.094  0.00  0.00    +0.000 A 
ATOM      9  C14 UNL     1       2.648   3.897  -0.264  0.00  0.00    +0.000 A 
ATOM     10  C15 UNL     1       1.810   4.937  -0.573  0.00  0.00    +0.000 A 
ATOM     11  C16 UNL     1       0.464   4.669  -0.704  0.00  0.00    +0.000 A 
ATOM     12  C17 UNL     1      -0.052   3.380  -0.531  0.00  0.00    +0.000 A 
ATOM     13  C18 UNL     1       0.793   2.335  -0.220  0.00  0.00    +0.000 A 
ATOM     14  H10 UNL     1      -1.766   1.460  -0.400  0.00  0.00    +0.000 HD
ENDROOT
BRANCH   1  22
ATOM     15  C1  UNL     1      -3.518   0.455  -1.916  0.00  0.00    +0.000 C 
ATOM     16  C2  UNL     1      -3.814  -0.594  -0.907  0.00  0.00    +0.000 A 
ATOM     17  C3  UNL     1      -5.114  -1.130  -0.849  0.00  0.00    +0.000 A 
ATOM     18  C4  UNL     1      -5.483  -2.132   0.000  0.00  0.00    +0.000 A 
ATOM     19  C5  UNL     1      -4.515  -2.634   0.839  0.00  0.00    +0.000 A 
ATOM     20  C6  UNL     1      -3.224  -2.131   0.812  0.00  0.00    +0.000 A 
ATOM     21  C7  UNL     1      -2.185  -2.666   1.726  0.00  0.00    +0.000 C 
ATOM     22  C8  UNL     1      -2.862  -1.099  -0.068  0.00  0.00    +0.000 A 
ENDBRANCH   1  22
BRANCH   6  23
ATOM     23  C19 UNL     1       3.375  -0.784   0.716  0.00  0.00    +0.000 A 
ATOM     24  C20 UNL     1       4.732  -0.671   0.878  0.00  0.00    +0.000 A 
ATOM     25  C21 UNL     1       5.524  -1.763   1.190  0.00  0.00    +0.000 A 
ATOM     26  C22 UNL     1       4.976  -3.017   1.353  0.00  0.00    +0.000 A 
ATOM     27  C23 UNL     1       3.608  -3.105   1.185  0.00  0.00    +0.000 A 
ATOM     28  N3  UNL     1       2.864  -2.036   0.883  0.00  0.00    +0.000 NA
ENDBRANCH   6  23
TORSDOF 2
