REMARK  Name = ./3D_structures\o37_MMV1581556_3D.pdb
REMARK  4 active torsions:
REMARK  status: ('A' for Active; 'I' for Inactive)
REMARK    1  A    between atoms: C1_2  and  C2_4
REMARK    2  A    between atoms: C6_9  and  S1_19
REMARK    3  A    between atoms: C9_12  and  C10_13
REMARK    4  A    between atoms: S1_19  and  N3_22
REMARK                            x       y       z     vdW  Elec       q    Type
REMARK                         _______ _______ _______ _____ _____    ______ ____
ROOT
ATOM      1  C2  UNL     1      -1.286  -1.743   0.187  0.00  0.00    +0.000 A 
ATOM      2  N2  UNL     1      -0.201  -2.492   0.404  0.00  0.00    +0.000 N 
ATOM      3  C3  UNL     1       0.927  -1.760   0.453  0.00  0.00    +0.000 A 
ATOM      4  C4  UNL     1       2.271  -2.086   0.655  0.00  0.00    +0.000 A 
ATOM      5  C5  UNL     1       3.251  -1.128   0.663  0.00  0.00    +0.000 A 
ATOM      6  C6  UNL     1       2.854   0.197   0.460  0.00  0.00    +0.000 A 
ATOM      7  C7  UNL     1       1.518   0.516   0.261  0.00  0.00    +0.000 A 
ATOM      8  C8  UNL     1       0.542  -0.452   0.255  0.00  0.00    +0.000 A 
ATOM      9  C9  UNL     1      -0.824  -0.424   0.090  0.00  0.00    +0.000 A 
ATOM     10  H3  UNL     1      -0.187  -3.531   0.526  0.00  0.00    +0.000 HD
ENDROOT
BRANCH   9  11
ATOM     11  C10 UNL     1      -1.679   0.743  -0.114  0.00  0.00    +0.000 A 
ATOM     12  C11 UNL     1      -2.222   1.044  -1.339  0.00  0.00    +0.000 A 
ATOM     13  C12 UNL     1      -3.045   2.163  -1.446  0.00  0.00    +0.000 A 
ATOM     14  C13 UNL     1      -3.332   2.976  -0.372  0.00  0.00    +0.000 A 
ATOM     15  C14 UNL     1      -2.775   2.658   0.850  0.00  0.00    +0.000 A 
ATOM     16  C15 UNL     1      -1.962   1.547   0.947  0.00  0.00    +0.000 A 
ENDBRANCH   9  11
BRANCH   1  18
ATOM     17  N1  UNL     1      -3.073  -3.485   0.193  0.00  0.00    +0.000 N 
ATOM     18  C1  UNL     1      -2.681  -2.140   0.063  0.00  0.00    +0.000 C 
ATOM     19  O1  UNL     1      -3.543  -1.258  -0.164  0.00  0.00    +0.000 OA
ATOM     20  H1  UNL     1      -2.847  -4.198  -0.551  0.00  0.00    +0.000 HD
ATOM     21  H2  UNL     1      -3.601  -3.855   1.017  0.00  0.00    +0.000 HD
ENDBRANCH   1  18
BRANCH   6  22
ATOM     22  S1  UNL     1       4.112   1.395   0.506  0.00  0.00    +0.000 S 
ATOM     23  O2  UNL     1       3.404   2.750   0.478  0.00  0.00    +0.000 OA
ATOM     24  O3  UNL     1       4.976   1.323   1.712  0.00  0.00    +0.000 OA
BRANCH  22  25
ATOM     25  N3  UNL     1       5.027   1.344  -0.981  0.00  0.00    +0.000 NA
ATOM     26  H12 UNL     1       5.860   0.703  -0.813  0.00  0.00    +0.000 HD
ATOM     27  H13 UNL     1       4.442   0.826  -1.670  0.00  0.00    +0.000 HD
ENDBRANCH  22  25
ENDBRANCH   6  22
TORSDOF 4
