REMARK  Name = ./3D_structures\o38_MMV1581549_3D.pdb
REMARK  6 active torsions:
REMARK  status: ('A' for Active; 'I' for Inactive)
REMARK    1  A    between atoms: C1_1  and  C2_2
REMARK    2  A    between atoms: C2_2  and  C3_3
REMARK    3  A    between atoms: C5_8  and  N4_9
REMARK    4  A    between atoms: C6_10  and  C7_11
REMARK    5  A    between atoms: C8_12  and  C9_13
REMARK    6  A    between atoms: C9_13  and  C10_14
REMARK                            x       y       z     vdW  Elec       q    Type
REMARK                         _______ _______ _______ _____ _____    ______ ____
ROOT
ATOM      1  C3  UNL     1      -2.738  -0.758   0.132  0.00  0.00    +0.000 C 
ATOM      2  N1  UNL     1      -3.990  -0.270  -0.208  0.00  0.00    +0.000 NA
ATOM      3  C4  UNL     1      -4.088   0.959  -0.748  0.00  0.00    +0.000 C 
ATOM      4  N2  UNL     1      -5.408   1.414  -1.104  0.00  0.00    +0.000 N 
ATOM      5  N3  UNL     1      -3.059   1.778  -0.996  0.00  0.00    +0.000 NA
ATOM      6  C5  UNL     1      -1.857   1.352  -0.693  0.00  0.00    +0.000 C 
ATOM      7  C6  UNL     1      -1.684   0.067  -0.122  0.00  0.00    +0.000 C 
ATOM      8  H6  UNL     1      -5.665   2.362  -0.766  0.00  0.00    +0.000 HD
ATOM      9  H7  UNL     1      -6.003   0.799  -1.649  0.00  0.00    +0.000 HD
ENDROOT
BRANCH   6  10
ATOM     10  N4  UNL     1      -0.650   2.110  -0.906  0.00  0.00    +0.000 N 
ATOM     11  H8  UNL     1       0.180   2.040  -0.300  0.00  0.00    +0.000 HD
ATOM     12  H9  UNL     1      -0.597   2.775  -1.727  0.00  0.00    +0.000 HD
ENDBRANCH   6  10
BRANCH   1  14
ATOM     13  C1  UNL     1      -2.048  -3.210   0.090  0.00  0.00    +0.000 C 
ATOM     14  C2  UNL     1      -2.644  -2.025   0.749  0.00  0.00    +0.000 C 
ENDBRANCH   1  14
BRANCH   7  15
ATOM     15  C7  UNL     1      -0.400  -0.406   0.085  0.00  0.00    +0.000 C 
ATOM     16  C8  UNL     1       0.865  -0.856   0.301  0.00  0.00    +0.000 C 
BRANCH  16  17
ATOM     17  C9  UNL     1       2.104  -1.321   0.520  0.00  0.00    +0.000 C 
BRANCH  17  18
ATOM     18  C10 UNL     1       3.089  -0.151   0.524  0.00  0.00    +0.000 A 
ATOM     19  C11 UNL     1       3.635   0.276  -0.632  0.00  0.00    +0.000 A 
ATOM     20  C12 UNL     1       4.498   1.381  -0.576  0.00  0.00    +0.000 A 
ATOM     21  C13 UNL     1       4.771   1.999   0.593  0.00  0.00    +0.000 A 
ATOM     22  C14 UNL     1       4.180   1.514   1.768  0.00  0.00    +0.000 A 
ATOM     23  C15 UNL     1       3.324   0.423   1.751  0.00  0.00    +0.000 A 
ENDBRANCH  17  18
ENDBRANCH  16  17
ENDBRANCH   7  15
TORSDOF 5
