REMARK  Name = ./3D_structures\o39_MMV1580847_3D.pdb
REMARK  15 active torsions:
REMARK  status: ('A' for Active; 'I' for Inactive)
REMARK    1  A    between atoms: C1_1  and  C2_2
REMARK    2  A    between atoms: C2_2  and  C3_3
REMARK    3  A    between atoms: C3_3  and  C4_4
REMARK    4  A    between atoms: C4_4  and  C5_5
REMARK    5  A    between atoms: C5_5  and  C6_6
REMARK    6  A    between atoms: C9_9  and  C12_12
REMARK    7  A    between atoms: N1_14  and  C13_15
REMARK    8  A    between atoms: C13_15  and  C14_16
REMARK    9  A    between atoms: C14_16  and  N2_17
REMARK   10  A    between atoms: C16_19  and  C17_20
REMARK   11  A    between atoms: C17_20  and  C18_21
REMARK   12  A    between atoms: C18_21  and  C19_22
REMARK   13  A    between atoms: C19_22  and  C20_23
REMARK   14  A    between atoms: C20_23  and  C21_24
REMARK   15  A    between atoms: C21_24  and  C22_25
REMARK                            x       y       z     vdW  Elec       q    Type
REMARK                         _______ _______ _______ _____ _____    ______ ____
ROOT
ATOM      1  N2  UNL     1       0.988   0.938   1.123  0.00  0.00    +0.000 N 
ATOM      2  C15 UNL     1       1.865   1.150   0.109  0.00  0.00    +0.000 A 
ATOM      3  C16 UNL     1       1.821   0.069  -0.744  0.00  0.00    +0.000 A 
ATOM      4  N6  UNL     1       0.914  -0.776  -0.225  0.00  0.00    +0.000 NA
ATOM      5  N7  UNL     1       0.429  -0.226   0.899  0.00  0.00    +0.000 NA
ENDROOT
BRANCH   1   6
ATOM      6  C14 UNL     1       0.784   1.886   2.199  0.00  0.00    +0.000 C 
BRANCH   6   7
ATOM      7  C13 UNL     1      -0.304   2.890   1.893  0.00  0.00    +0.000 C 
BRANCH   7  10
ATOM      8  C12 UNL     1      -2.761   2.745   1.375  0.00  0.00    +0.000 C 
ATOM      9  O1  UNL     1      -2.744   4.002   1.289  0.00  0.00    +0.000 OA
ATOM     10  N1  UNL     1      -1.538   2.116   1.683  0.00  0.00    +0.000 N 
ATOM     11  H16 UNL     1      -1.537   1.076   1.758  0.00  0.00    +0.000 HD
BRANCH   8  15
ATOM     12  C6  UNL     1      -6.475   0.690   0.728  0.00  0.00    +0.000 A 
ATOM     13  C7  UNL     1      -6.353   2.085   0.664  0.00  0.00    +0.000 A 
ATOM     14  C8  UNL     1      -5.160   2.735   0.872  0.00  0.00    +0.000 A 
ATOM     15  C9  UNL     1      -4.005   2.023   1.160  0.00  0.00    +0.000 A 
ATOM     16  C10 UNL     1      -4.131   0.659   1.222  0.00  0.00    +0.000 A 
ATOM     17  C11 UNL     1      -5.343  -0.011   1.011  0.00  0.00    +0.000 A 
BRANCH  12  18
ATOM     18  C5  UNL     1      -7.829   0.086   0.510  0.00  0.00    +0.000 C 
BRANCH  18  19
ATOM     19  C4  UNL     1      -8.212  -0.101  -0.896  0.00  0.00    +0.000 C 
BRANCH  19  20
ATOM     20  C3  UNL     1      -7.483  -0.976  -1.812  0.00  0.00    +0.000 C 
BRANCH  20  22
ATOM     21  C1  UNL     1      -6.836  -3.030  -0.425  0.00  0.00    +0.000 C 
ATOM     22  C2  UNL     1      -7.439  -2.430  -1.625  0.00  0.00    +0.000 C 
ENDBRANCH  20  22
ENDBRANCH  19  20
ENDBRANCH  18  19
ENDBRANCH  12  18
ENDBRANCH   8  15
ENDBRANCH   7  10
ENDBRANCH   6   7
ENDBRANCH   1   6
BRANCH   3  23
ATOM     23  C17 UNL     1       2.652  -0.047  -1.968  0.00  0.00    +0.000 C 
BRANCH  23  24
ATOM     24  C18 UNL     1       3.967  -0.728  -1.668  0.00  0.00    +0.000 C 
BRANCH  24  25
ATOM     25  C19 UNL     1       4.726   0.062  -0.652  0.00  0.00    +0.000 C 
BRANCH  25  26
ATOM     26  C20 UNL     1       6.052  -0.523  -0.277  0.00  0.00    +0.000 C 
BRANCH  26  27
ATOM     27  C21 UNL     1       6.924  -0.612  -1.505  0.00  0.00    +0.000 C 
BRANCH  27  28
ATOM     28  C22 UNL     1       8.245  -1.200  -1.085  0.00  0.00    +0.000 A 
ATOM     29  C23 UNL     1       8.562  -2.546  -1.065  0.00  0.00    +0.000 A 
ATOM     30  N3  UNL     1       9.829  -2.607  -0.628  0.00  0.00    +0.000 NA
ATOM     31  C24 UNL     1      10.277  -1.372  -0.389  0.00  0.00    +0.000 A 
ATOM     32  N4  UNL     1      11.600  -1.084   0.092  0.00  0.00    +0.000 N 
ATOM     33  N5  UNL     1       9.313  -0.487  -0.665  0.00  0.00    +0.000 N 
ATOM     34  H33 UNL     1      11.774  -0.283   0.741  0.00  0.00    +0.000 HD
ATOM     35  H34 UNL     1      12.379  -1.687  -0.220  0.00  0.00    +0.000 HD
ATOM     36  H35 UNL     1       9.383   0.547  -0.571  0.00  0.00    +0.000 HD
ENDBRANCH  27  28
ENDBRANCH  26  27
ENDBRANCH  25  26
ENDBRANCH  24  25
ENDBRANCH  23  24
ENDBRANCH   3  23
TORSDOF 14
