REMARK  Name = ./3D_structures\o3_MMV1634391_3D.pdb
REMARK  12 active torsions:
REMARK  status: ('A' for Active; 'I' for Inactive)
REMARK    1  A    between atoms: C1_2  and  C20_30
REMARK    2  A    between atoms: N1_3  and  C2_4
REMARK    3  A    between atoms: N2_6  and  C4_7
REMARK    4  A    between atoms: C5_8  and  C7_10
REMARK    5  A    between atoms: N3_12  and  C8_13
REMARK    6  A    between atoms: N4_15  and  C10_16
REMARK    7  A    between atoms: C11_17  and  C13_19
REMARK    8  A    between atoms: N5_21  and  C14_22
REMARK    9  A    between atoms: C14_22  and  C15_23
REMARK   10  A    between atoms: C15_23  and  N6_24
REMARK   11  A    between atoms: C23_33  and  C24_34
REMARK   12  A    between atoms: C25_35  and  C26_36
REMARK                            x       y       z     vdW  Elec       q    Type
REMARK                         _______ _______ _______ _____ _____    ______ ____
ROOT
ATOM      1  C2  UNL     1       1.267  -0.511   0.672  0.00  0.00    +0.000 A 
ATOM      2  C3  UNL     1       0.555  -1.566   0.163  0.00  0.00    +0.000 A 
ATOM      3  N2  UNL     1      -0.788  -1.371   0.293  0.00  0.00    +0.000 N 
ATOM      4  C4  UNL     1      -1.797  -2.346  -0.141  0.00  0.00    +0.000 C 
ATOM      5  C5  UNL     1      -0.946  -0.192   0.884  0.00  0.00    +0.000 A 
ATOM      6  C6  UNL     1       0.321   0.366   1.135  0.00  0.00    +0.000 A 
ENDROOT
BRANCH   1   9
ATOM      7  O1  UNL     1       3.272  -2.288  -0.234  0.00  0.00    +0.000 OA
ATOM      8  C1  UNL     1       3.662  -1.183   0.257  0.00  0.00    +0.000 C 
ATOM      9  N1  UNL     1       2.667  -0.299   0.716  0.00  0.00    +0.000 N 
ATOM     10  H1  UNL     1       3.017   0.608   1.129  0.00  0.00    +0.000 HD
BRANCH   8  11
ATOM     11  C20 UNL     1       5.088  -0.909   0.306  0.00  0.00    +0.000 A 
ATOM     12  C21 UNL     1       5.614   0.139   1.009  0.00  0.00    +0.000 A 
ATOM     13  C22 UNL     1       6.996   0.361   0.964  0.00  0.00    +0.000 A 
ATOM     14  C23 UNL     1       7.839  -0.447   0.233  0.00  0.00    +0.000 A 
ATOM     15  C35 UNL     1       7.311  -1.485  -0.459  0.00  0.00    +0.000 A 
ATOM     16  C36 UNL     1       5.935  -1.714  -0.421  0.00  0.00    +0.000 A 
BRANCH  14  17
ATOM     17  C24 UNL     1       9.254  -0.117   0.214  0.00  0.00    +0.000 C 
ATOM     18  C25 UNL     1      10.187  -0.771  -0.431  0.00  0.00    +0.000 C 
BRANCH  18  19
ATOM     19  C26 UNL     1      11.603  -0.438  -0.452  0.00  0.00    +0.000 A 
ATOM     20  C27 UNL     1      12.171   0.617   0.224  0.00  0.00    +0.000 A 
ATOM     21  C28 UNL     1      13.536   0.898   0.128  0.00  0.00    +0.000 A 
ATOM     22  C29 UNL     1      14.101   1.957   0.800  0.00  0.00    +0.000 A 
ATOM     23  C30 UNL     1      15.447   2.228   0.692  0.00  0.00    +0.000 A 
ATOM     24  C31 UNL     1      16.295   1.442  -0.102  0.00  0.00    +0.000 A 
ATOM     25  C32 UNL     1      15.695   0.385  -0.765  0.00  0.00    +0.000 A 
ATOM     26  C33 UNL     1      14.339   0.111  -0.657  0.00  0.00    +0.000 A 
ATOM     27  N7  UNL     1      13.791  -0.925  -1.323  0.00  0.00    +0.000 NA
ATOM     28  C34 UNL     1      12.469  -1.197  -1.228  0.00  0.00    +0.000 A 
ENDBRANCH  18  19
ENDBRANCH  14  17
ENDBRANCH   8  11
ENDBRANCH   1   9
BRANCH   5  29
ATOM     29  C7  UNL     1      -2.184   0.527   1.196  0.00  0.00    +0.000 C 
ATOM     30  O2  UNL     1      -2.169   1.440   2.057  0.00  0.00    +0.000 OA
ATOM     31  N3  UNL     1      -3.385   0.211   0.537  0.00  0.00    +0.000 N 
ATOM     32  H7  UNL     1      -3.439  -0.530  -0.200  0.00  0.00    +0.000 HD
BRANCH  31  33
ATOM     33  C8  UNL     1      -4.615   0.893   0.814  0.00  0.00    +0.000 A 
ATOM     34  C9  UNL     1      -4.941   1.733   1.836  0.00  0.00    +0.000 A 
ATOM     35  N4  UNL     1      -6.226   2.173   1.672  0.00  0.00    +0.000 N 
ATOM     36  C10 UNL     1      -6.865   3.083   2.605  0.00  0.00    +0.000 C 
ATOM     37  C11 UNL     1      -6.726   1.622   0.554  0.00  0.00    +0.000 A 
ATOM     38  C12 UNL     1      -5.754   0.830   0.011  0.00  0.00    +0.000 A 
BRANCH  37  39
ATOM     39  C13 UNL     1      -8.081   1.857   0.019  0.00  0.00    +0.000 C 
ATOM     40  O3  UNL     1      -8.864   2.609   0.628  0.00  0.00    +0.000 OA
ATOM     41  N5  UNL     1      -8.477   1.220  -1.192  0.00  0.00    +0.000 N 
ATOM     42  H13 UNL     1      -7.748   0.591  -1.643  0.00  0.00    +0.000 HD
BRANCH  41  43
ATOM     43  C14 UNL     1      -9.781   1.414  -1.769  0.00  0.00    +0.000 C 
BRANCH  43  44
ATOM     44  C15 UNL     1     -10.902   0.984  -0.888  0.00  0.00    +0.000 C 
BRANCH  44  45
ATOM     45  N6  UNL     1     -10.836  -0.441  -0.570  0.00  0.00    +0.000 NA
ATOM     46  C16 UNL     1     -11.942  -0.814   0.285  0.00  0.00    +0.000 C 
ATOM     47  C17 UNL     1     -11.822  -2.259   0.740  0.00  0.00    +0.000 C 
ATOM     48  O4  UNL     1     -11.278  -3.038  -0.287  0.00  0.00    +0.000 OA
ATOM     49  C18 UNL     1     -11.619  -2.491  -1.540  0.00  0.00    +0.000 C 
ATOM     50  C19 UNL     1     -10.879  -1.204  -1.783  0.00  0.00    +0.000 C 
ENDBRANCH  44  45
ENDBRANCH  43  44
ENDBRANCH  41  43
ENDBRANCH  37  39
ENDBRANCH  31  33
ENDBRANCH   5  29
TORSDOF 10
