REMARK  Name = ./3D_structures\o40_MMV1579847_3D.pdb
REMARK  5 active torsions:
REMARK  status: ('A' for Active; 'I' for Inactive)
REMARK    1  A    between atoms: C1_1  and  C2_2
REMARK    2  A    between atoms: C5_6  and  C6_7
REMARK    3  A    between atoms: N2_9  and  C7_10
REMARK    4  A    between atoms: C7_10  and  C8_11
REMARK    5  A    between atoms: C14_17  and  C15_18
REMARK                            x       y       z     vdW  Elec       q    Type
REMARK                         _______ _______ _______ _____ _____    ______ ____
ROOT
ATOM      1  C1  UNL     1       5.501  -1.692  -1.529  0.00  0.00    +0.000 C 
ATOM      2  C2  UNL     1       4.250  -1.058  -1.040  0.00  0.00    +0.000 A 
ATOM      3  C3  UNL     1       3.115  -0.960  -1.811  0.00  0.00    +0.000 A 
ATOM      4  C4  UNL     1       1.972  -0.345  -1.271  0.00  0.00    +0.000 A 
ATOM      5  N1  UNL     1       1.973   0.149  -0.014  0.00  0.00    +0.000 N 
ATOM      6  C5  UNL     1       1.004   0.776   0.724  0.00  0.00    +0.000 A 
ATOM      7  C14 UNL     1       1.524   1.075   1.958  0.00  0.00    +0.000 A 
ATOM      8  C15 UNL     1       0.891   1.758   3.086  0.00  0.00    +0.000 C 
ATOM      9  N3  UNL     1       2.804   0.625   1.955  0.00  0.00    +0.000 NA
ATOM     10  C16 UNL     1       3.060   0.071   0.765  0.00  0.00    +0.000 A 
ATOM     11  C17 UNL     1       4.190  -0.540   0.222  0.00  0.00    +0.000 A 
ENDROOT
BRANCH   6  12
ATOM     12  C6  UNL     1      -0.328   1.070   0.209  0.00  0.00    +0.000 C 
ATOM     13  O1  UNL     1      -0.510   0.959  -1.045  0.00  0.00    +0.000 OA
ATOM     14  N2  UNL     1      -1.458   1.464   0.947  0.00  0.00    +0.000 N 
ATOM     15  H6  UNL     1      -1.389   1.556   1.973  0.00  0.00    +0.000 HD
BRANCH  14  16
ATOM     16  C7  UNL     1      -2.753   1.735   0.292  0.00  0.00    +0.000 C 
BRANCH  16  17
ATOM     17  C8  UNL     1      -3.464   0.512  -0.090  0.00  0.00    +0.000 A 
ATOM     18  C9  UNL     1      -4.153  -0.234   0.868  0.00  0.00    +0.000 A 
ATOM     19  C10 UNL     1      -4.838  -1.381   0.568  0.00  0.00    +0.000 A 
ATOM     20  C11 UNL     1      -4.862  -1.841  -0.737  0.00  0.00    +0.000 A 
ATOM     21  C12 UNL     1      -4.190  -1.120  -1.690  0.00  0.00    +0.000 A 
ATOM     22  C13 UNL     1      -3.498   0.047  -1.365  0.00  0.00    +0.000 A 
ENDBRANCH  16  17
ENDBRANCH  14  16
ENDBRANCH   6  12
TORSDOF 3
