REMARK  Name = ./3D_structures\o41_MMV1579782_3D.pdb
REMARK  4 active torsions:
REMARK  status: ('A' for Active; 'I' for Inactive)
REMARK    1  A    between atoms: C1_1  and  C2_2
REMARK    2  A    between atoms: C6_6  and  C7_7
REMARK    3  A    between atoms: C7_7  and  C8_8
REMARK    4  A    between atoms: N1_10  and  C9_11
REMARK                            x       y       z     vdW  Elec       q    Type
REMARK                         _______ _______ _______ _____ _____    ______ ____
ROOT
ATOM      1  C8  UNL     1       0.577  -0.151   0.208  0.00  0.00    +0.000 C 
ATOM      2  O1  UNL     1       0.362   0.611  -0.770  0.00  0.00    +0.000 OA
ATOM      3  N1  UNL     1       1.915  -0.529   0.445  0.00  0.00    +0.000 N 
ATOM      4  H9  UNL     1       2.119  -1.159   1.248  0.00  0.00    +0.000 HD
ENDROOT
BRANCH   3   5
ATOM      5  C9  UNL     1       3.005  -0.068  -0.391  0.00  0.00    +0.000 C 
ATOM      6  C10 UNL     1       4.036   0.715   0.385  0.00  0.00    +0.000 C 
ATOM      7  C11 UNL     1       5.312   0.352  -0.375  0.00  0.00    +0.000 C 
ATOM      8  O2  UNL     1       5.134  -1.044  -0.559  0.00  0.00    +0.000 OA
ATOM      9  C12 UNL     1       3.795  -1.219  -0.883  0.00  0.00    +0.000 C 
ATOM     10  O3  UNL     1       3.320  -2.202  -1.498  0.00  0.00    +0.000 OA
ENDBRANCH   3   5
BRANCH   1  11
ATOM     11  C7  UNL     1      -0.564  -0.611   1.052  0.00  0.00    +0.000 C 
BRANCH  11  17
ATOM     12  C1  UNL     1      -4.620  -0.908  -1.898  0.00  0.00    +0.000 C 
ATOM     13  C2  UNL     1      -3.783  -0.208  -0.878  0.00  0.00    +0.000 A 
ATOM     14  C3  UNL     1      -4.191   1.008  -0.371  0.00  0.00    +0.000 A 
ATOM     15  C4  UNL     1      -3.446   1.701   0.582  0.00  0.00    +0.000 A 
ATOM     16  C5  UNL     1      -2.260   1.174   1.049  0.00  0.00    +0.000 A 
ATOM     17  C6  UNL     1      -1.841  -0.044   0.549  0.00  0.00    +0.000 A 
ATOM     18  C13 UNL     1      -2.596  -0.728  -0.405  0.00  0.00    +0.000 A 
ENDBRANCH  11  17
ENDBRANCH   1  11
TORSDOF 3
