REMARK  Name = ./3D_structures\o42_MMV1579777_3D.pdb
REMARK  5 active torsions:
REMARK  status: ('A' for Active; 'I' for Inactive)
REMARK    1  A    between atoms: O1_1  and  C1_2
REMARK    2  A    between atoms: C2_4  and  O2_5
REMARK    3  A    between atoms: C4_8  and  C5_9
REMARK    4  A    between atoms: C5_9  and  N2_10
REMARK    5  A    between atoms: C7_13  and  N4_15
REMARK                            x       y       z     vdW  Elec       q    Type
REMARK                         _______ _______ _______ _____ _____    ______ ____
ROOT
ATOM      1  C1  UNL     1       2.611   0.647   1.349  0.00  0.00    +0.000 C 
ATOM      2  N1  UNL     1       3.260   1.113   0.268  0.00  0.00    +0.000 NA
ATOM      3  C2  UNL     1       2.893   0.733  -0.964  0.00  0.00    +0.000 C 
ATOM      4  C3  UNL     1       1.834  -0.146  -1.068  0.00  0.00    +0.000 C 
ATOM      5 BR1  UNL     1       1.355  -0.699  -2.817  0.00  0.00    +0.000 Br
ATOM      6  C4  UNL     1       1.163  -0.629   0.025  0.00  0.00    +0.000 C 
ATOM      7  N5  UNL     1       1.590  -0.200   1.240  0.00  0.00    +0.000 NA
ENDROOT
BRANCH   1   8
ATOM      8  O1  UNL     1       3.081   1.112   2.591  0.00  0.00    +0.000 OA
ATOM      9  H1  UNL     1       3.603   0.498   3.180  0.00  0.00    +0.000 HD
ENDBRANCH   1   8
BRANCH   3  10
ATOM     10  O2  UNL     1       3.556   1.207  -2.110  0.00  0.00    +0.000 OA
ATOM     11  H2  UNL     1       3.121   2.018  -2.543  0.00  0.00    +0.000 HD
ENDBRANCH   3  10
BRANCH   6  12
ATOM     12  C5  UNL     1       0.009  -1.547   0.000  0.00  0.00    +0.000 C 
BRANCH  12  13
ATOM     13  N2  UNL     1      -1.255  -0.892  -0.272  0.00  0.00    +0.000 N 
ATOM     14  C6  UNL     1      -1.917  -0.667  -1.415  0.00  0.00    +0.000 A 
ATOM     15  N3  UNL     1      -3.051   0.007  -1.104  0.00  0.00    +0.000 NA
ATOM     16  C7  UNL     1      -3.127   0.217   0.215  0.00  0.00    +0.000 A 
ATOM     17  C8  UNL     1      -1.992  -0.350   0.747  0.00  0.00    +0.000 A 
BRANCH  16  18
ATOM     18  N4  UNL     1      -4.183   0.892   0.882  0.00  0.00    +0.000 N 
ATOM     19  O3  UNL     1      -5.240   1.392   0.174  0.00  0.00    +0.000 OA
ATOM     20  O4  UNL     1      -4.156   1.035   2.116  0.00  0.00    +0.000 OA
ENDBRANCH  16  18
ENDBRANCH  12  13
ENDBRANCH   6  12
TORSDOF 5
