REMARK  Name = ./3D_structures\o43_MMV292173_3D.pdb
REMARK  2 active torsions:
REMARK  status: ('A' for Active; 'I' for Inactive)
REMARK    1  A    between atoms: O1_1  and  C1_2
REMARK    2  A    between atoms: C5_7  and  C8_11
REMARK                            x       y       z     vdW  Elec       q    Type
REMARK                         _______ _______ _______ _____ _____    ______ ____
ROOT
ATOM      1  C1  UNL     1       4.069   0.448  -0.045  0.00  0.00    +0.000 A 
ATOM      2  C2  UNL     1       3.891  -0.431   1.006  0.00  0.00    +0.000 A 
ATOM      3  C3  UNL     1       2.640  -0.868   1.389  0.00  0.00    +0.000 A 
ATOM      4  C4  UNL     1       1.562  -0.388   0.675  0.00  0.00    +0.000 A 
ATOM      5  N1  UNL     1       0.238  -0.612   0.790  0.00  0.00    +0.000 N 
ATOM      6  C5  UNL     1      -0.442   0.081  -0.136  0.00  0.00    +0.000 A 
ATOM      7  N2  UNL     1       0.455   0.763  -0.859  0.00  0.00    +0.000 NA
ATOM      8  C6  UNL     1       1.682   0.491  -0.382  0.00  0.00    +0.000 A 
ATOM      9  C7  UNL     1       2.947   0.908  -0.738  0.00  0.00    +0.000 A 
ATOM     10  H4  UNL     1      -0.176  -1.241   1.507  0.00  0.00    +0.000 HD
ENDROOT
BRANCH   6  11
ATOM     11  C8  UNL     1      -1.891   0.046  -0.266  0.00  0.00    +0.000 A 
ATOM     12  C9  UNL     1      -2.547   0.790  -1.251  0.00  0.00    +0.000 A 
ATOM     13  C10 UNL     1      -3.918   0.762  -1.381  0.00  0.00    +0.000 A 
ATOM     14  C11 UNL     1      -4.691  -0.006  -0.538  0.00  0.00    +0.000 A 
ATOM     15  C12 UNL     1      -4.076  -0.750   0.443  0.00  0.00    +0.000 A 
ATOM     16  C13 UNL     1      -2.689  -0.710   0.560  0.00  0.00    +0.000 A 
ENDBRANCH   6  11
BRANCH   1  17
ATOM     17  O1  UNL     1       5.332   0.876  -0.415  0.00  0.00    +0.000 OA
ATOM     18  H1  UNL     1       6.122   0.524   0.108  0.00  0.00    +0.000 HD
ENDBRANCH   1  17
TORSDOF 2
