REMARK  Name = ./3D_structures\o44_MMV102270_3D.pdb
REMARK  6 active torsions:
REMARK  status: ('A' for Active; 'I' for Inactive)
REMARK    1  A    between atoms: C1_1  and  O1_2
REMARK    2  A    between atoms: O1_2  and  C2_3
REMARK    3  A    between atoms: C5_6  and  O2_7
REMARK    4  A    between atoms: C10_14  and  C11_15
REMARK    5  A    between atoms: C20_26  and  O7_27
REMARK    6  A    between atoms: O7_27  and  C21_28
REMARK                            x       y       z     vdW  Elec       q    Type
REMARK                         _______ _______ _______ _____ _____    ______ ____
ROOT
ATOM      1  C2  UNL     1       3.264   0.492   0.051  0.00  0.00    +0.000 A 
ATOM      2  C3  UNL     1       2.955  -0.519   0.930  0.00  0.00    +0.000 A 
ATOM      3  C4  UNL     1       1.633  -0.959   1.053  0.00  0.00    +0.000 A 
ATOM      4  C5  UNL     1       1.341  -1.966   1.943  0.00  0.00    +0.000 A 
ATOM      5  C6  UNL     1       0.017  -2.390   2.060  0.00  0.00    +0.000 A 
ATOM      6  C7  UNL     1      -0.577  -3.431   2.936  0.00  0.00    +0.000 C 
ATOM      7  O3  UNL     1      -1.929  -3.424   2.590  0.00  0.00    +0.000 OA
ATOM      8  C8  UNL     1      -2.215  -2.470   1.637  0.00  0.00    +0.000 C 
ATOM      9  O4  UNL     1      -3.331  -2.171   1.109  0.00  0.00    +0.000 OA
ATOM     10  C9  UNL     1      -0.961  -1.808   1.298  0.00  0.00    +0.000 A 
ATOM     11  C10 UNL     1      -0.658  -0.788   0.399  0.00  0.00    +0.000 A 
ATOM     12  C18 UNL     1       0.645  -0.375   0.287  0.00  0.00    +0.000 A 
ATOM     13  C19 UNL     1       0.948   0.640  -0.598  0.00  0.00    +0.000 A 
ATOM     14  C20 UNL     1       2.251   1.061  -0.705  0.00  0.00    +0.000 A 
ENDROOT
BRANCH  11  15
ATOM     15  C11 UNL     1      -1.717  -0.175  -0.389  0.00  0.00    +0.000 A 
ATOM     16  C12 UNL     1      -2.247  -0.848  -1.462  0.00  0.00    +0.000 A 
ATOM     17  C13 UNL     1      -3.261  -0.293  -2.236  0.00  0.00    +0.000 A 
ATOM     18  C14 UNL     1      -3.768   0.955  -1.949  0.00  0.00    +0.000 A 
ATOM     19  O5  UNL     1      -4.762   1.739  -2.540  0.00  0.00    +0.000 OA
ATOM     20  C15 UNL     1      -5.130   2.727  -1.562  0.00  0.00    +0.000 C 
ATOM     21  O6  UNL     1      -3.932   2.860  -0.814  0.00  0.00    +0.000 OA
ATOM     22  C16 UNL     1      -3.240   1.633  -0.874  0.00  0.00    +0.000 A 
ATOM     23  C17 UNL     1      -2.244   1.080  -0.119  0.00  0.00    +0.000 A 
ENDBRANCH  11  15
BRANCH   1  25
ATOM     24  C1  UNL     1       5.594   0.341   0.709  0.00  0.00    +0.000 C 
ATOM     25  O1  UNL     1       4.590   0.959  -0.095  0.00  0.00    +0.000 OA
ENDBRANCH   1  25
BRANCH   4  26
ATOM     26  O2  UNL     1       2.262  -2.599   2.741  0.00  0.00    +0.000 OA
ATOM     27  H5  UNL     1       3.223  -2.371   2.731  0.00  0.00    +0.000 HD
ENDBRANCH   4  26
BRANCH  14  28
ATOM     28  O7  UNL     1       2.594   2.056  -1.563  0.00  0.00    +0.000 OA
ATOM     29  C21 UNL     1       1.772   2.779  -2.418  0.00  0.00    +0.000 C 
ENDBRANCH  14  28
TORSDOF 4
