REMARK  Name = ./3D_structures\o45_MMV000008_3D.pdb
REMARK  11 active torsions:
REMARK  status: ('A' for Active; 'I' for Inactive)
REMARK    1  A    between atoms: C1_1  and  C2_2
REMARK    2  A    between atoms: C2_2  and  N1_3
REMARK    3  A    between atoms: N1_3  and  C3_4
REMARK    4  A    between atoms: N1_3  and  C5_6
REMARK    5  A    between atoms: C3_4  and  C4_5
REMARK    6  A    between atoms: C5_6  and  C6_7
REMARK    7  A    between atoms: C6_7  and  C7_8
REMARK    8  A    between atoms: C7_8  and  C8_9
REMARK    9  A    between atoms: C8_9  and  C9_10
REMARK   10  A    between atoms: C8_9  and  N2_11
REMARK   11  A    between atoms: N2_11  and  C10_12
REMARK                            x       y       z     vdW  Elec       q    Type
REMARK                         _______ _______ _______ _____ _____    ______ ____
ROOT
ATOM      1  N2  UNL     1       1.881   0.511  -0.230  0.00  0.00    +0.000 N 
ATOM      2  H21 UNL     1       2.067   1.514  -0.069  0.00  0.00    +0.000 HD
ENDROOT
BRANCH   1   3
ATOM      3  C10 UNL     1       2.949  -0.387  -0.432  0.00  0.00    +0.000 A 
ATOM      4  C11 UNL     1       2.688  -1.704  -0.748  0.00  0.00    +0.000 A 
ATOM      5  C12 UNL     1       3.729  -2.606  -0.971  0.00  0.00    +0.000 A 
ATOM      6  N3  UNL     1       5.006  -2.200  -0.879  0.00  0.00    +0.000 NA
ATOM      7  C13 UNL     1       5.296  -0.940  -0.577  0.00  0.00    +0.000 A 
ATOM      8  C14 UNL     1       6.624  -0.599  -0.501  0.00  0.00    +0.000 A 
ATOM      9  C15 UNL     1       6.954   0.695  -0.190  0.00  0.00    +0.000 A 
ATOM     10 CL1  UNL     1       8.654   1.141  -0.090  0.00  0.00    +0.000 Cl
ATOM     11  C16 UNL     1       5.965   1.622   0.038  0.00  0.00    +0.000 A 
ATOM     12  C17 UNL     1       4.611   1.279  -0.038  0.00  0.00    +0.000 A 
ATOM     13  C18 UNL     1       4.269  -0.015  -0.349  0.00  0.00    +0.000 A 
ENDBRANCH   1   3
BRANCH   1  14
ATOM     14  C8  UNL     1       0.478   0.035  -0.248  0.00  0.00    +0.000 C 
ATOM     15  C9  UNL     1       0.287  -0.979   0.833  0.00  0.00    +0.000 C 
BRANCH  14  16
ATOM     16  C7  UNL     1      -0.426   1.191  -0.191  0.00  0.00    +0.000 C 
BRANCH  16  17
ATOM     17  C6  UNL     1      -1.886   1.045  -0.337  0.00  0.00    +0.000 C 
BRANCH  17  18
ATOM     18  C5  UNL     1      -2.535   0.215   0.686  0.00  0.00    +0.000 C 
BRANCH  18  19
ATOM     19  N1  UNL     1      -3.988   0.134   0.529  0.00  0.00    +0.000 NA
BRANCH  19  21
ATOM     20  C1  UNL     1      -6.127   1.084   0.958  0.00  0.00    +0.000 C 
ATOM     21  C2  UNL     1      -4.637   1.391   0.782  0.00  0.00    +0.000 C 
ENDBRANCH  19  21
BRANCH  19  22
ATOM     22  C3  UNL     1      -4.347  -0.441  -0.747  0.00  0.00    +0.000 C 
ATOM     23  C4  UNL     1      -3.657  -1.756  -0.896  0.00  0.00    +0.000 C 
ENDBRANCH  19  22
ENDBRANCH  18  19
ENDBRANCH  17  18
ENDBRANCH  16  17
ENDBRANCH  14  16
ENDBRANCH   1  14
TORSDOF 8
