REMARK  Name = ./3D_structures\o46_MMV002260_3D.pdb
REMARK  5 active torsions:
REMARK  status: ('A' for Active; 'I' for Inactive)
REMARK    1  A    between atoms: C1_1  and  C2_2
REMARK    2  A    between atoms: C3_5  and  C4_6
REMARK    3  A    between atoms: C10_12  and  C11_13
REMARK    4  A    between atoms: C14_16  and  S1_19
REMARK    5  A    between atoms: S1_19  and  N2_22
REMARK                            x       y       z     vdW  Elec       q    Type
REMARK                         _______ _______ _______ _____ _____    ______ ____
ROOT
ATOM      1  C1  UNL     1      -0.561  -3.789  -0.846  0.00  0.00    +0.000 C 
ATOM      2  C2  UNL     1       0.689  -3.007  -0.752  0.00  0.00    +0.000 A 
ATOM      3  O1  UNL     1       1.911  -3.447  -0.970  0.00  0.00    +0.000 OA
ATOM      4  N1  UNL     1       2.773  -2.494  -0.799  0.00  0.00    +0.000 NA
ATOM      5  C3  UNL     1       2.140  -1.359  -0.453  0.00  0.00    +0.000 A 
ATOM      6  C10 UNL     1       0.773  -1.665  -0.415  0.00  0.00    +0.000 A 
ENDROOT
BRANCH   5   7
ATOM      7  C4  UNL     1       2.696  -0.048  -0.165  0.00  0.00    +0.000 A 
ATOM      8  C5  UNL     1       3.240   0.321   1.047  0.00  0.00    +0.000 A 
ATOM      9  C6  UNL     1       3.760   1.572   1.274  0.00  0.00    +0.000 A 
ATOM     10  C7  UNL     1       3.733   2.488   0.243  0.00  0.00    +0.000 A 
ATOM     11  C8  UNL     1       3.199   2.164  -0.986  0.00  0.00    +0.000 A 
ATOM     12  C9  UNL     1       2.691   0.896  -1.161  0.00  0.00    +0.000 A 
ENDBRANCH   5   7
BRANCH   6  13
ATOM     13  C11 UNL     1      -0.308  -0.791  -0.098  0.00  0.00    +0.000 A 
ATOM     14  C12 UNL     1      -0.646   0.290  -0.883  0.00  0.00    +0.000 A 
ATOM     15  C13 UNL     1      -1.703   1.138  -0.555  0.00  0.00    +0.000 A 
ATOM     16  C14 UNL     1      -2.442   0.916   0.570  0.00  0.00    +0.000 A 
ATOM     17  C15 UNL     1      -2.128  -0.152   1.368  0.00  0.00    +0.000 A 
ATOM     18  C16 UNL     1      -1.085  -0.979   1.034  0.00  0.00    +0.000 A 
BRANCH  16  19
ATOM     19  S1  UNL     1      -3.768   2.017   0.941  0.00  0.00    +0.000 S 
ATOM     20  O2  UNL     1      -3.828   2.200   2.411  0.00  0.00    +0.000 OA
ATOM     21  O3  UNL     1      -3.444   3.356   0.308  0.00  0.00    +0.000 OA
BRANCH  19  22
ATOM     22  N2  UNL     1      -5.243   1.480   0.257  0.00  0.00    +0.000 NA
ATOM     23  H13 UNL     1      -5.193   0.524  -0.134  0.00  0.00    +0.000 HD
ATOM     24  H14 UNL     1      -6.047   1.621   0.907  0.00  0.00    +0.000 HD
ENDBRANCH  19  22
ENDBRANCH  16  19
ENDBRANCH   6  13
TORSDOF 4
