REMARK  Name = ./3D_structures\o47_MMV102833_3D.pdb
REMARK  2 active torsions:
REMARK  status: ('A' for Active; 'I' for Inactive)
REMARK    1  A    between atoms: C4_5  and  C7_8
REMARK    2  A    between atoms: C9_12  and  C10_14
REMARK                            x       y       z     vdW  Elec       q    Type
REMARK                         _______ _______ _______ _____ _____    ______ ____
ROOT
ATOM      1  C7  UNL     1       3.280  -0.448  -0.533  0.00  0.00    +0.000 A 
ATOM      2  O1  UNL     1       2.052  -0.186  -0.148  0.00  0.00    +0.000 OA
ATOM      3  C8  UNL     1       1.194  -0.699  -0.989  0.00  0.00    +0.000 A 
ATOM      4  N1  UNL     1      -0.221  -0.663  -0.971  0.00  0.00    +0.000 N 
ATOM      5  C9  UNL     1      -0.984  -0.028   0.022  0.00  0.00    +0.000 C 
ATOM      6  O2  UNL     1      -0.388   0.545   0.953  0.00  0.00    +0.000 OA
ATOM      7  N3  UNL     1       1.932  -1.302  -1.932  0.00  0.00    +0.000 NA
ATOM      8  N4  UNL     1       3.225  -1.151  -1.656  0.00  0.00    +0.000 NA
ATOM      9  H5  UNL     1      -0.776  -1.134  -1.736  0.00  0.00    +0.000 HD
ENDROOT
BRANCH   5  10
ATOM     10  C10 UNL     1      -2.471  -0.040  -0.037  0.00  0.00    +0.000 A 
ATOM     11  N2  UNL     1      -3.374  -0.412  -0.656  0.00  0.00    +0.000 NA
ATOM     12  C11 UNL     1      -4.664  -0.274  -0.469  0.00  0.00    +0.000 A 
ATOM     13  C12 UNL     1      -5.753  -0.728  -1.223  0.00  0.00    +0.000 A 
ATOM     14  C13 UNL     1      -7.050  -0.484  -0.869  0.00  0.00    +0.000 A 
ATOM     15  C14 UNL     1      -7.368   0.227   0.256  0.00  0.00    +0.000 A 
ATOM     16  C15 UNL     1      -6.319   0.707   1.051  0.00  0.00    +0.000 A 
ATOM     17  C16 UNL     1      -5.025   0.437   0.655  0.00  0.00    +0.000 A 
ATOM     18  S1  UNL     1      -3.392   0.849   1.355  0.00  0.00    +0.000 S 
ENDBRANCH   5  10
BRANCH   1  23
ATOM     19 CL1  UNL     1       8.180   1.317   2.415  0.00  0.00    +0.000 Cl
ATOM     20  C1  UNL     1       6.754   0.796   1.546  0.00  0.00    +0.000 A 
ATOM     21  C2  UNL     1       6.880   0.065   0.382  0.00  0.00    +0.000 A 
ATOM     22  C3  UNL     1       5.722  -0.321  -0.265  0.00  0.00    +0.000 A 
ATOM     23  C4  UNL     1       4.462  -0.011   0.197  0.00  0.00    +0.000 A 
ATOM     24  C5  UNL     1       4.378   0.720   1.361  0.00  0.00    +0.000 A 
ATOM     25  C6  UNL     1       5.516   1.128   2.042  0.00  0.00    +0.000 A 
ENDBRANCH   1  23
TORSDOF 2
