REMARK  Name = ./3D_structures\o48_MMV565773_3D.pdb
REMARK  5 active torsions:
REMARK  status: ('A' for Active; 'I' for Inactive)
REMARK    1  A    between atoms: O1_1  and  C1_2
REMARK    2  A    between atoms: C2_3  and  C10_12
REMARK    3  A    between atoms: C10_12  and  N2_13
REMARK    4  A    between atoms: C10_12  and  C16_20
REMARK    5  A    between atoms: N2_13  and  C11_14
REMARK                            x       y       z     vdW  Elec       q    Type
REMARK                         _______ _______ _______ _____ _____    ______ ____
ROOT
ATOM      1  C10 UNL     1      -0.487   0.604   1.479  0.00  0.00    +0.000 C 
ENDROOT
BRANCH   1   3
ATOM      2  C1  UNL     1       1.213  -1.048   0.681  0.00  0.00    +0.000 A 
ATOM      3  C2  UNL     1       0.848   0.234   0.981  0.00  0.00    +0.000 A 
ATOM      4  C3  UNL     1       1.812   1.235   0.809  0.00  0.00    +0.000 A 
ATOM      5  C4  UNL     1       3.070   0.969   0.361  0.00  0.00    +0.000 A 
ATOM      6  C5  UNL     1       3.437  -0.338   0.056  0.00  0.00    +0.000 A 
ATOM      7  C6  UNL     1       4.701  -0.640  -0.400  0.00  0.00    +0.000 A 
ATOM      8  C7  UNL     1       4.984  -1.939  -0.677  0.00  0.00    +0.000 A 
ATOM      9  C8  UNL     1       4.016  -2.894  -0.496  0.00  0.00    +0.000 A 
ATOM     10  N1  UNL     1       2.779  -2.629  -0.055  0.00  0.00    +0.000 NA
ATOM     11  C9  UNL     1       2.491  -1.321   0.225  0.00  0.00    +0.000 A 
BRANCH   2  12
ATOM     12  O1  UNL     1       0.323  -2.128   0.824  0.00  0.00    +0.000 OA
ATOM     13  H1  UNL     1       0.582  -3.059   0.608  0.00  0.00    +0.000 HD
ENDBRANCH   2  12
ENDBRANCH   1   3
BRANCH   1  14
ATOM     14  C16 UNL     1      -1.045   1.782   0.749  0.00  0.00    +0.000 A 
ATOM     15  C17 UNL     1      -0.510   2.260  -0.413  0.00  0.00    +0.000 A 
ATOM     16  C18 UNL     1      -1.053   3.386  -1.056  0.00  0.00    +0.000 A 
ATOM     17  C19 UNL     1      -2.140   4.026  -0.516  0.00  0.00    +0.000 A 
ATOM     18  C20 UNL     1      -2.690   3.556   0.652  0.00  0.00    +0.000 A 
ATOM     19  C21 UNL     1      -2.135   2.442   1.268  0.00  0.00    +0.000 A 
ENDBRANCH   1  14
BRANCH   1  20
ATOM     20  N2  UNL     1      -1.396  -0.483   1.490  0.00  0.00    +0.000 N 
ATOM     21  H8  UNL     1      -1.645  -0.926   2.399  0.00  0.00    +0.000 HD
BRANCH  20  22
ATOM     22  C11 UNL     1      -2.015  -1.043   0.339  0.00  0.00    +0.000 A 
ATOM     23  C12 UNL     1      -2.889  -2.107   0.398  0.00  0.00    +0.000 A 
ATOM     24  C13 UNL     1      -3.486  -2.634  -0.725  0.00  0.00    +0.000 A 
ATOM     25  C14 UNL     1      -3.214  -2.096  -1.948  0.00  0.00    +0.000 A 
ATOM     26  C15 UNL     1      -2.332  -1.023  -2.003  0.00  0.00    +0.000 A 
ATOM     27  N3  UNL     1      -1.757  -0.524  -0.870  0.00  0.00    +0.000 NA
ENDBRANCH  20  22
ENDBRANCH   1  20
TORSDOF 5
