REMARK  Name = ./3D_structures\o49_MMV1578577_3D.pdb
REMARK  2 active torsions:
REMARK  status: ('A' for Active; 'I' for Inactive)
REMARK    1  A    between atoms: C1_2  and  C12_14
REMARK    2  A    between atoms: N1_3  and  C2_4
REMARK                            x       y       z     vdW  Elec       q    Type
REMARK                         _______ _______ _______ _____ _____    ______ ____
ROOT
ATOM      1  O1  UNL     1       0.327  -0.498  -1.833  0.00  0.00    +0.000 OA
ATOM      2  C1  UNL     1       0.878  -0.293  -0.725  0.00  0.00    +0.000 C 
ATOM      3  N1  UNL     1       0.008   0.080   0.336  0.00  0.00    +0.000 N 
ATOM      4  H1  UNL     1       0.439   0.256   1.264  0.00  0.00    +0.000 HD
ENDROOT
BRANCH   3   5
ATOM      5  C2  UNL     1      -1.420   0.217   0.171  0.00  0.00    +0.000 C 
ATOM      6  C3  UNL     1      -1.972   0.631   1.519  0.00  0.00    +0.000 C 
ATOM      7  C4  UNL     1      -3.455   0.808   1.532  0.00  0.00    +0.000 C 
ATOM      8  C5  UNL     1      -4.072  -0.528   1.150  0.00  0.00    +0.000 C 
ATOM      9  C6  UNL     1      -3.575  -0.878  -0.217  0.00  0.00    +0.000 C 
ATOM     10  C7  UNL     1      -3.992   0.188  -1.198  0.00  0.00    +0.000 C 
ATOM     11  C8  UNL     1      -3.280   1.464  -0.803  0.00  0.00    +0.000 C 
ATOM     12  C9  UNL     1      -3.807   1.895   0.541  0.00  0.00    +0.000 C 
ATOM     13  C10 UNL     1      -1.781   1.307  -0.808  0.00  0.00    +0.000 C 
ATOM     14  C11 UNL     1      -2.081  -1.060  -0.297  0.00  0.00    +0.000 C 
ENDBRANCH   3   5
BRANCH   2  15
ATOM     15  C12 UNL     1       2.326  -0.426  -0.531  0.00  0.00    +0.000 A 
ATOM     16  C13 UNL     1       3.053  -0.232   0.623  0.00  0.00    +0.000 A 
ATOM     17  C14 UNL     1       4.391  -0.456   0.396  0.00  0.00    +0.000 A 
ATOM     18  C15 UNL     1       5.519  -0.397   1.206  0.00  0.00    +0.000 A 
ATOM     19  C16 UNL     1       6.765  -0.682   0.686  0.00  0.00    +0.000 A 
ATOM     20  C17 UNL     1       6.856  -1.022  -0.638  0.00  0.00    +0.000 A 
ATOM     21  C18 UNL     1       5.727  -1.080  -1.443  0.00  0.00    +0.000 A 
ATOM     22  C19 UNL     1       4.472  -0.799  -0.948  0.00  0.00    +0.000 A 
ATOM     23  N2  UNL     1       3.226  -0.771  -1.466  0.00  0.00    +0.000 N 
ATOM     24  H22 UNL     1       3.016  -0.994  -2.470  0.00  0.00    +0.000 HD
ENDBRANCH   2  15
TORSDOF 2
