REMARK  Name = ./3D_structures\o4_MMV1633674_3D.pdb
REMARK  12 active torsions:
REMARK  status: ('A' for Active; 'I' for Inactive)
REMARK    1  A    between atoms: C1_1  and  C2_2
REMARK    2  A    between atoms: C10_11  and  C11_12
REMARK    3  A    between atoms: C12_13  and  O3_23
REMARK    4  A    between atoms: C14_15  and  C15_16
REMARK    5  A    between atoms: C14_15  and  C16_17
REMARK    6  A    between atoms: C18_19  and  O2_20
REMARK    7  A    between atoms: C19_21  and  C20_22
REMARK    8  A    between atoms: O3_23  and  C21_24
REMARK    9  A    between atoms: C21_24  and  C22_26
REMARK   10  A    between atoms: C22_26  and  S1_27
REMARK   11  A    between atoms: S1_27  and  C23_28
REMARK   12  A    between atoms: N1_35  and  C30_36
REMARK                            x       y       z     vdW  Elec       q    Type
REMARK                         _______ _______ _______ _____ _____    ______ ____
ROOT
ATOM      1  C1  UNL     1      -1.560   2.593  -2.119  0.00  0.00    +0.000 C 
ATOM      2  C2  UNL     1      -2.749   1.639  -1.932  0.00  0.00    +0.000 C 
ATOM      3  C3  UNL     1      -3.971   2.345  -1.489  0.00  0.00    +0.000 C 
ATOM      4  C4  UNL     1      -4.616   1.888  -0.239  0.00  0.00    +0.000 C 
ATOM      5  C5  UNL     1      -4.686   0.385  -0.053  0.00  0.00    +0.000 C 
ATOM      6  C6  UNL     1      -6.002  -0.048  -0.706  0.00  0.00    +0.000 C 
ATOM      7  C7  UNL     1      -5.672  -1.109  -1.719  0.00  0.00    +0.000 C 
ATOM      8  C8  UNL     1      -4.318  -0.674  -2.140  0.00  0.00    +0.000 C 
ATOM      9  O1  UNL     1      -3.966  -0.682  -3.280  0.00  0.00    +0.000 OA
ATOM     10  C9  UNL     1      -3.666  -0.292  -0.870  0.00  0.00    +0.000 C 
ATOM     11  C10 UNL     1      -2.378   0.405  -1.141  0.00  0.00    +0.000 C 
ATOM     12  C11 UNL     1      -1.662  -0.504  -2.167  0.00  0.00    +0.000 C 
ATOM     13  C12 UNL     1      -1.483   0.683  -0.036  0.00  0.00    +0.000 C 
ATOM     14  C13 UNL     1      -1.838   0.503   1.385  0.00  0.00    +0.000 C 
ATOM     15  C14 UNL     1      -2.319  -0.743   1.952  0.00  0.00    +0.000 C 
ATOM     16  C15 UNL     1      -1.458  -1.940   1.528  0.00  0.00    +0.000 C 
ATOM     17  C18 UNL     1      -3.785  -1.049   1.858  0.00  0.00    +0.000 C 
ATOM     18  C19 UNL     1      -4.668   0.051   1.418  0.00  0.00    +0.000 C 
ATOM     19  C20 UNL     1      -6.075  -0.265   1.961  0.00  0.00    +0.000 C 
ENDROOT
BRANCH  15  20
ATOM     20  C16 UNL     1      -2.019  -0.665   3.449  0.00  0.00    +0.000 C 
ATOM     21  C17 UNL     1      -1.686  -1.701   4.169  0.00  0.00    +0.000 C 
ENDBRANCH  15  20
BRANCH  17  22
ATOM     22  O2  UNL     1      -4.277  -1.453   3.138  0.00  0.00    +0.000 OA
ATOM     23  H27 UNL     1      -4.042  -0.731   3.766  0.00  0.00    +0.000 HD
ENDBRANCH  17  22
BRANCH  13  24
ATOM     24  O3  UNL     1      -0.230   0.043  -0.231  0.00  0.00    +0.000 OA
BRANCH  24  25
ATOM     25  C21 UNL     1       0.986   0.681  -0.346  0.00  0.00    +0.000 C 
ATOM     26  O4  UNL     1       1.004   1.935  -0.269  0.00  0.00    +0.000 OA
BRANCH  25  27
ATOM     27  C22 UNL     1       2.260  -0.100  -0.558  0.00  0.00    +0.000 C 
BRANCH  27  28
ATOM     28  S1  UNL     1       3.609   1.074  -0.645  0.00  0.00    +0.000 S 
BRANCH  28  29
ATOM     29  C23 UNL     1       5.205   0.288  -0.891  0.00  0.00    +0.000 C 
ATOM     30  C24 UNL     1       5.516  -0.523   0.351  0.00  0.00    +0.000 C 
ATOM     31  C25 UNL     1       6.947  -0.938   0.442  0.00  0.00    +0.000 C 
ATOM     32  C26 UNL     1       7.370  -1.720  -0.783  0.00  0.00    +0.000 C 
ATOM     33  C27 UNL     1       7.736  -0.627  -1.755  0.00  0.00    +0.000 C 
ATOM     34  C28 UNL     1       7.658   0.667  -0.962  0.00  0.00    +0.000 C 
ATOM     35  C29 UNL     1       6.293   1.311  -1.078  0.00  0.00    +0.000 C 
ATOM     36  N1  UNL     1       7.803   0.231   0.418  0.00  0.00    +0.000 NA
ATOM     37  C30 UNL     1       9.170  -0.111   0.736  0.00  0.00    +0.000 C 
ENDBRANCH  28  29
ENDBRANCH  27  28
ENDBRANCH  25  27
ENDBRANCH  24  25
ENDBRANCH  13  24
TORSDOF 7
