REMARK  Name = ./3D_structures\o50_MMV233495_3D.pdb
REMARK  4 active torsions:
REMARK  status: ('A' for Active; 'I' for Inactive)
REMARK    1  A    between atoms: S1_1  and  N1_4
REMARK    2  A    between atoms: S1_1  and  C10_15
REMARK    3  A    between atoms: N1_4  and  C1_5
REMARK    4  A    between atoms: C13_18  and  C14_19
REMARK                            x       y       z     vdW  Elec       q    Type
REMARK                         _______ _______ _______ _____ _____    ______ ____
ROOT
ATOM      1  N1  UNL     1      -0.610  -1.807  -0.282  0.00  0.00    +0.000 N 
ATOM      2  H1  UNL     1      -0.885  -2.570  -0.948  0.00  0.00    +0.000 HD
ENDROOT
BRANCH   1   3
ATOM      3  C1  UNL     1      -1.354  -0.611  -0.251  0.00  0.00    +0.000 A 
ATOM      4  C2  UNL     1      -0.758   0.571  -0.586  0.00  0.00    +0.000 A 
ATOM      5  C3  UNL     1      -1.524   1.736  -0.571  0.00  0.00    +0.000 A 
ATOM      6  C4  UNL     1      -2.857   1.698  -0.225  0.00  0.00    +0.000 A 
ATOM      7  C5  UNL     1      -3.469   0.512   0.114  0.00  0.00    +0.000 A 
ATOM      8  C6  UNL     1      -4.803   0.460   0.462  0.00  0.00    +0.000 A 
ATOM      9  C7  UNL     1      -5.318  -0.779   0.784  0.00  0.00    +0.000 A 
ATOM     10  C8  UNL     1      -4.521  -1.904   0.755  0.00  0.00    +0.000 A 
ATOM     11  N2  UNL     1      -3.221  -1.838   0.414  0.00  0.00    +0.000 NA
ATOM     12  C9  UNL     1      -2.709  -0.638   0.098  0.00  0.00    +0.000 A 
ENDBRANCH   1   3
BRANCH   1  13
ATOM     13  S1  UNL     1       0.735  -2.042   0.743  0.00  0.00    +0.000 S 
ATOM     14  O1  UNL     1       1.291  -3.436   0.473  0.00  0.00    +0.000 OA
ATOM     15  O2  UNL     1       0.331  -1.995   2.206  0.00  0.00    +0.000 OA
BRANCH  13  16
ATOM     16  C10 UNL     1       1.951  -0.853   0.407  0.00  0.00    +0.000 A 
ATOM     17  C11 UNL     1       2.781  -1.061  -0.672  0.00  0.00    +0.000 A 
ATOM     18  C12 UNL     1       3.769  -0.138  -0.937  0.00  0.00    +0.000 A 
ATOM     19  C13 UNL     1       3.965   0.990  -0.168  0.00  0.00    +0.000 A 
ATOM     20  C14 UNL     1       5.063   1.943  -0.526  0.00  0.00    +0.000 C 
ATOM     21  C15 UNL     1       3.138   1.195   0.906  0.00  0.00    +0.000 A 
ATOM     22  C16 UNL     1       2.147   0.284   1.184  0.00  0.00    +0.000 A 
ENDBRANCH  13  16
ENDBRANCH   1  13
TORSDOF 3
