REMARK  Name = ./3D_structures\o52_MMV1633675_3D.pdb
REMARK  9 active torsions:
REMARK  status: ('A' for Active; 'I' for Inactive)
REMARK    1  A    between atoms: C1_1  and  C2_2
REMARK    2  A    between atoms: C2_2  and  C3_3
REMARK    3  A    between atoms: C2_2  and  C4_4
REMARK    4  A    between atoms: C10_10  and  C11_11
REMARK    5  A    between atoms: C10_10  and  C20_24
REMARK    6  A    between atoms: C15_15  and  C16_16
REMARK    7  A    between atoms: C19_19  and  S1_20
REMARK    8  A    between atoms: S1_20  and  O3_23
REMARK    9  A    between atoms: C20_24  and  O5_26
REMARK                            x       y       z     vdW  Elec       q    Type
REMARK                         _______ _______ _______ _____ _____    ______ ____
ROOT
ATOM      1  C4  UNL     1       2.906   0.158   0.132  0.00  0.00    +0.000 A 
ATOM      2  C5  UNL     1       1.969   0.298   1.167  0.00  0.00    +0.000 A 
ATOM      3  C6  UNL     1       0.614   0.339   0.936  0.00  0.00    +0.000 A 
ATOM      4  C7  UNL     1      -0.253   0.507   2.116  0.00  0.00    +0.000 C 
ATOM      5  C8  UNL     1      -1.672   0.877   1.721  0.00  0.00    +0.000 C 
ATOM      6  C9  UNL     1      -2.034  -0.001   0.565  0.00  0.00    +0.000 C 
ATOM      7  C10 UNL     1      -3.480  -0.249   0.344  0.00  0.00    +0.000 C 
ATOM      8  C11 UNL     1      -4.189   0.752  -0.538  0.00  0.00    +0.000 C 
ATOM      9  C12 UNL     1      -3.573  -1.646  -0.302  0.00  0.00    +0.000 C 
ATOM     10  C13 UNL     1      -2.339  -1.961  -1.074  0.00  0.00    +0.000 C 
ATOM     11  C14 UNL     1      -1.646  -0.794  -1.701  0.00  0.00    +0.000 C 
ATOM     12  C15 UNL     1      -1.260   0.270  -0.697  0.00  0.00    +0.000 C 
ATOM     13  C16 UNL     1      -1.505   1.607  -1.325  0.00  0.00    +0.000 C 
ATOM     14  C17 UNL     1       0.188   0.238  -0.348  0.00  0.00    +0.000 A 
ATOM     15  C18 UNL     1       1.082   0.101  -1.386  0.00  0.00    +0.000 A 
ATOM     16  C19 UNL     1       2.471   0.059  -1.163  0.00  0.00    +0.000 A 
ENDROOT
BRANCH   1  18
ATOM     17  C1  UNL     1       4.653   0.603   1.831  0.00  0.00    +0.000 C 
ATOM     18  C2  UNL     1       4.355   0.092   0.429  0.00  0.00    +0.000 C 
ATOM     19  C3  UNL     1       4.756  -1.389   0.365  0.00  0.00    +0.000 C 
ENDBRANCH   1  18
BRANCH  16  20
ATOM     20  S1  UNL     1       3.570  -0.090  -2.498  0.00  0.00    +0.000 S 
ATOM     21  O1  UNL     1       4.342  -1.347  -2.549  0.00  0.00    +0.000 OA
ATOM     22  O2  UNL     1       2.773   0.048  -3.802  0.00  0.00    +0.000 OA
BRANCH  20  23
ATOM     23  O3  UNL     1       4.668   1.206  -2.558  0.00  0.00    +0.000 OA
ATOM     24  H27 UNL     1       4.252   2.040  -2.221  0.00  0.00    +0.000 HD
ENDBRANCH  20  23
ENDBRANCH  16  20
BRANCH   7  25
ATOM     25  C20 UNL     1      -4.209  -0.263   1.628  0.00  0.00    +0.000 C 
ATOM     26  O4  UNL     1      -4.617  -1.353   2.135  0.00  0.00    +0.000 OA
BRANCH  25  27
ATOM     27  O5  UNL     1      -4.487   0.889   2.342  0.00  0.00    +0.000 OA
ATOM     28  H28 UNL     1      -5.295   0.970   2.965  0.00  0.00    +0.000 HD
ENDBRANCH  25  27
ENDBRANCH   7  25
TORSDOF 5
