REMARK  Name = ./3D_structures\o53_MMV303733_3D.pdb
REMARK  12 active torsions:
REMARK  status: ('A' for Active; 'I' for Inactive)
REMARK    1  A    between atoms: C1_1  and  O1_2
REMARK    2  A    between atoms: O1_2  and  C2_3
REMARK    3  A    between atoms: C5_6  and  C6_7
REMARK    4  A    between atoms: C6_7  and  N1_8
REMARK    5  A    between atoms: C7_9  and  C8_11
REMARK    6  A    between atoms: C8_11  and  N2_12
REMARK    7  A    between atoms: C8_11  and  C17_26
REMARK    8  A    between atoms: N2_12  and  S1_13
REMARK    9  A    between atoms: S1_13  and  C9_16
REMARK   10  A    between atoms: C13_21  and  C14_22
REMARK   11  A    between atoms: C17_26  and  C18_27
REMARK   12  A    between atoms: C17_26  and  C19_28
REMARK                            x       y       z     vdW  Elec       q    Type
REMARK                         _______ _______ _______ _____ _____    ______ ____
ROOT
ATOM      1  C8  UNL     1       0.197  -1.766  -1.582  0.00  0.00    +0.000 C 
ENDROOT
BRANCH   1   3
ATOM      2  N1  UNL     1      -1.109  -0.665   0.221  0.00  0.00    +0.000 N 
ATOM      3  C7  UNL     1      -0.451  -0.564  -1.059  0.00  0.00    +0.000 C 
ATOM      4  O2  UNL     1      -0.457   0.563  -1.623  0.00  0.00    +0.000 OA
ATOM      5  H8  UNL     1      -1.099  -1.649   0.632  0.00  0.00    +0.000 HD
BRANCH   2   6
ATOM      6  C6  UNL     1      -1.732   0.372   0.923  0.00  0.00    +0.000 C 
BRANCH   6  10
ATOM      7  C2  UNL     1      -5.869   1.128   0.752  0.00  0.00    +0.000 A 
ATOM      8  C3  UNL     1      -5.286   0.456  -0.302  0.00  0.00    +0.000 A 
ATOM      9  C4  UNL     1      -3.905   0.221  -0.288  0.00  0.00    +0.000 A 
ATOM     10  C5  UNL     1      -3.156   0.660   0.759  0.00  0.00    +0.000 A 
ATOM     11  C20 UNL     1      -3.786   1.360   1.833  0.00  0.00    +0.000 A 
ATOM     12  C21 UNL     1      -5.116   1.575   1.810  0.00  0.00    +0.000 A 
BRANCH   7  14
ATOM     13  C1  UNL     1      -7.915   2.005   1.780  0.00  0.00    +0.000 C 
ATOM     14  O1  UNL     1      -7.240   1.338   0.719  0.00  0.00    +0.000 OA
ENDBRANCH   7  14
ENDBRANCH   6  10
ENDBRANCH   2   6
ENDBRANCH   1   3
BRANCH   1  15
ATOM     15  C17 UNL     1      -0.489  -2.793  -2.313  0.00  0.00    +0.000 C 
ATOM     16  C18 UNL     1      -1.682  -3.476  -1.713  0.00  0.00    +0.000 C 
ATOM     17  C19 UNL     1      -0.651  -2.600  -3.824  0.00  0.00    +0.000 C 
ENDBRANCH   1  15
BRANCH   1  18
ATOM     18  N2  UNL     1       1.419  -2.060  -0.861  0.00  0.00    +0.000 NA
ATOM     19  H10 UNL     1       1.305  -2.193   0.132  0.00  0.00    +0.000 HD
BRANCH  18  20
ATOM     20  S1  UNL     1       2.811  -1.341  -1.447  0.00  0.00    +0.000 S 
ATOM     21  O3  UNL     1       2.518  -0.604  -2.776  0.00  0.00    +0.000 OA
ATOM     22  O4  UNL     1       3.847  -2.389  -1.885  0.00  0.00    +0.000 OA
BRANCH  20  23
ATOM     23  C9  UNL     1       3.574  -0.231  -0.363  0.00  0.00    +0.000 A 
ATOM     24  C10 UNL     1       3.016   0.941   0.040  0.00  0.00    +0.000 A 
ATOM     25  C11 UNL     1       3.678   1.893   0.803  0.00  0.00    +0.000 A 
ATOM     26  C12 UNL     1       5.001   1.688   1.207  0.00  0.00    +0.000 A 
ATOM     27  N3  UNL     1       5.817   2.460   1.885  0.00  0.00    +0.000 NA
ATOM     28  C13 UNL     1       6.915   2.342   2.210  0.00  0.00    +0.000 A 
ATOM     29  C14 UNL     1       8.121   2.926   2.906  0.00  0.00    +0.000 C 
ATOM     30  S2  UNL     1       7.246   0.602   1.444  0.00  0.00    +0.000 S 
ATOM     31  C15 UNL     1       5.541   0.490   0.789  0.00  0.00    +0.000 A 
ATOM     32  C16 UNL     1       4.903  -0.463   0.037  0.00  0.00    +0.000 A 
ENDBRANCH  20  23
ENDBRANCH  18  20
ENDBRANCH   1  18
TORSDOF 8
