REMARK  Name = ./3D_structures\o54_MMV003249_3D.pdb
REMARK  1 active torsions:
REMARK  status: ('A' for Active; 'I' for Inactive)
REMARK    1  A    between atoms: C1_2  and  C2_4
REMARK                            x       y       z     vdW  Elec       q    Type
REMARK                         _______ _______ _______ _____ _____    ______ ____
ROOT
ATOM      1  C2  UNL     1      -0.237   0.333   0.068  0.00  0.00    +0.000 A 
ATOM      2  C3  UNL     1       0.164  -0.962  -0.172  0.00  0.00    +0.000 A 
ATOM      3  N2  UNL     1       1.467  -1.273  -0.258  0.00  0.00    +0.000 NA
ATOM      4  C4  UNL     1       2.446  -0.366  -0.119  0.00  0.00    +0.000 A 
ATOM      5  C5  UNL     1       2.037   0.929   0.121  0.00  0.00    +0.000 A 
ATOM      6  N3  UNL     1       0.736   1.247   0.208  0.00  0.00    +0.000 NA
ENDROOT
BRANCH   1   8
ATOM      7  N1  UNL     1      -2.600  -0.352   0.001  0.00  0.00    +0.000 N 
ATOM      8  C1  UNL     1      -1.651   0.687   0.164  0.00  0.00    +0.000 C 
ATOM      9  O1  UNL     1      -2.055   1.850   0.381  0.00  0.00    +0.000 OA
ATOM     10  H1  UNL     1      -2.498  -1.311   0.383  0.00  0.00    +0.000 HD
ATOM     11  H2  UNL     1      -3.462  -0.142  -0.541  0.00  0.00    +0.000 HD
ENDBRANCH   1   8
TORSDOF 1
