REMARK  Name = ./3D_structures\o55_MMV001438_3D.pdb
REMARK  7 active torsions:
REMARK  status: ('A' for Active; 'I' for Inactive)
REMARK    1  A    between atoms: C1_1  and  C2_2
REMARK    2  A    between atoms: C3_3  and  O1_4
REMARK    3  A    between atoms: O1_4  and  C4_5
REMARK    4  A    between atoms: C4_5  and  C5_6
REMARK    5  A    between atoms: C8_13  and  C9_14
REMARK    6  A    between atoms: C9_14  and  S1_15
REMARK    7  A    between atoms: S1_15  and  C10_17
REMARK                            x       y       z     vdW  Elec       q    Type
REMARK                         _______ _______ _______ _____ _____    ______ ____
ROOT
ATOM      1  C1  UNL     1      -1.987  -0.294   1.913  0.00  0.00    +0.000 C 
ATOM      2  C2  UNL     1      -2.225  -0.343   0.481  0.00  0.00    +0.000 A 
ATOM      3  C3  UNL     1      -3.553  -0.495   0.037  0.00  0.00    +0.000 A 
ATOM      4  C6  UNL     1      -3.788  -0.544  -1.320  0.00  0.00    +0.000 A 
ATOM      5  C7  UNL     1      -2.755  -0.445  -2.201  0.00  0.00    +0.000 A 
ATOM      6  N1  UNL     1      -1.506  -0.301  -1.744  0.00  0.00    +0.000 NA
ATOM      7  C8  UNL     1      -1.228  -0.250  -0.429  0.00  0.00    +0.000 A 
ENDROOT
BRANCH   3   8
ATOM      8  O1  UNL     1      -4.537  -0.590   0.948  0.00  0.00    +0.000 OA
BRANCH   8   9
ATOM      9  C4  UNL     1      -5.871  -0.719   1.063  0.00  0.00    +0.000 C 
BRANCH   9  10
ATOM     10  C5  UNL     1      -6.766   0.367   0.557  0.00  0.00    +0.000 C 
ATOM     11  F1  UNL     1      -6.451   1.551   1.237  0.00  0.00    +0.000 F 
ATOM     12  F2  UNL     1      -6.794   0.522  -0.789  0.00  0.00    +0.000 F 
ATOM     13  F3  UNL     1      -8.101   0.097   0.944  0.00  0.00    +0.000 F 
ENDBRANCH   9  10
ENDBRANCH   8   9
ENDBRANCH   3   8
BRANCH   7  14
ATOM     14  C9  UNL     1       0.173  -0.090  -0.017  0.00  0.00    +0.000 C 
BRANCH  14  15
ATOM     15  S1  UNL     1       1.242   0.003  -1.445  0.00  0.00    +0.000 S 
ATOM     16  O2  UNL     1       0.880   1.249  -2.243  0.00  0.00    +0.000 OA
BRANCH  15  17
ATOM     17  C10 UNL     1       2.932   0.195  -0.929  0.00  0.00    +0.000 A 
ATOM     18  N2  UNL     1       3.565   1.358  -0.717  0.00  0.00    +0.000 NA
ATOM     19  C11 UNL     1       4.847   1.101  -0.332  0.00  0.00    +0.000 A 
ATOM     20  C12 UNL     1       5.911   1.923   0.005  0.00  0.00    +0.000 A 
ATOM     21  C13 UNL     1       7.134   1.400   0.368  0.00  0.00    +0.000 A 
ATOM     22  C14 UNL     1       7.248   0.021   0.380  0.00  0.00    +0.000 A 
ATOM     23  C15 UNL     1       6.211  -0.824   0.050  0.00  0.00    +0.000 A 
ATOM     24  C16 UNL     1       5.003  -0.267  -0.307  0.00  0.00    +0.000 A 
ATOM     25  N3  UNL     1       3.808  -0.779  -0.679  0.00  0.00    +0.000 N 
ATOM     26  H14 UNL     1       3.632  -1.815  -0.750  0.00  0.00    +0.000 HD
ENDBRANCH  15  17
ENDBRANCH  14  15
ENDBRANCH   7  14
TORSDOF 6
