REMARK  Name = ./3D_structures\o56_MMV1582496_3D.pdb
REMARK  5 active torsions:
REMARK  status: ('A' for Active; 'I' for Inactive)
REMARK    1  A    between atoms: C3_5  and  N1_6
REMARK    2  A    between atoms: N1_6  and  C4_7
REMARK    3  A    between atoms: C4_7  and  C5_8
REMARK    4  A    between atoms: C11_14  and  C12_15
REMARK    5  A    between atoms: C14_19  and  C15_20
REMARK                            x       y       z     vdW  Elec       q    Type
REMARK                         _______ _______ _______ _____ _____    ______ ____
ROOT
ATOM      1  F1  UNL     1       4.643  -1.395   1.073  0.00  0.00    +0.000 F 
ATOM      2  C1  UNL     1       3.629  -0.497   1.135  0.00  0.00    +0.000 A 
ATOM      3  C2  UNL     1       2.344  -0.804   0.704  0.00  0.00    +0.000 A 
ATOM      4 CL1  UNL     1       2.092  -2.418   0.072  0.00  0.00    +0.000 Cl
ATOM      5  C3  UNL     1       1.350   0.146   0.789  0.00  0.00    +0.000 A 
ATOM      6  C11 UNL     1       1.575   1.409   1.291  0.00  0.00    +0.000 A 
ATOM      7  C13 UNL     1       2.851   1.711   1.718  0.00  0.00    +0.000 A 
ATOM      8  F2  UNL     1       3.060   2.951   2.207  0.00  0.00    +0.000 F 
ATOM      9  C14 UNL     1       3.878   0.764   1.642  0.00  0.00    +0.000 A 
ENDROOT
BRANCH   5  10
ATOM     10  N1  UNL     1       0.039  -0.200   0.337  0.00  0.00    +0.000 N 
ATOM     11  H1  UNL     1      -0.580  -0.611   1.065  0.00  0.00    +0.000 HD
BRANCH  10  12
ATOM     12  C4  UNL     1      -0.336   0.036  -1.039  0.00  0.00    +0.000 C 
BRANCH  12  13
ATOM     13  C5  UNL     1      -1.731  -0.419  -1.272  0.00  0.00    +0.000 A 
ATOM     14  C6  UNL     1      -2.533   0.210  -2.231  0.00  0.00    +0.000 A 
ATOM     15  C7  UNL     1      -3.828  -0.199  -2.467  0.00  0.00    +0.000 A 
ATOM     16  C8  UNL     1      -4.392  -1.245  -1.770  0.00  0.00    +0.000 A 
ATOM     17  C9  UNL     1      -3.614  -1.872  -0.823  0.00  0.00    +0.000 A 
ATOM     18  C10 UNL     1      -2.318  -1.462  -0.589  0.00  0.00    +0.000 A 
ENDBRANCH  12  13
ENDBRANCH  10  12
ENDBRANCH   5  10
BRANCH   6  19
ATOM     19  C12 UNL     1       0.490   2.384   1.361  0.00  0.00    +0.000 C 
ATOM     20  N2  UNL     1      -0.369   3.145   1.435  0.00  0.00    +0.000 NA
ENDBRANCH   6  19
BRANCH   9  21
ATOM     21  C15 UNL     1       5.183   1.157   2.109  0.00  0.00    +0.000 C 
ATOM     22  N3  UNL     1       6.234   1.472   2.476  0.00  0.00    +0.000 NA
ENDBRANCH   9  21
TORSDOF 5
