REMARK  Name = ./3D_structures\o57_MMV1582490_3D.pdb
REMARK  6 active torsions:
REMARK  status: ('A' for Active; 'I' for Inactive)
REMARK    1  A    between atoms: C1_1  and  C2_2
REMARK    2  A    between atoms: C2_2  and  C3_3
REMARK    3  A    between atoms: C5_5  and  C6_6
REMARK    4  A    between atoms: C6_6  and  C7_7
REMARK    5  A    between atoms: C13_17  and  C14_18
REMARK    6  A    between atoms: N5_21  and  C17_22
REMARK                            x       y       z     vdW  Elec       q    Type
REMARK                         _______ _______ _______ _____ _____    ______ ____
ROOT
ATOM      1  C3  UNL     1      -1.331  -1.276  -0.053  0.00  0.00    +0.000 A 
ATOM      2  C4  UNL     1      -0.084  -1.521  -0.673  0.00  0.00    +0.000 A 
ATOM      3  C5  UNL     1       0.656  -0.521  -1.232  0.00  0.00    +0.000 A 
ATOM      4  C11 UNL     1       0.193   0.773  -1.202  0.00  0.00    +0.000 A 
ATOM      5  C12 UNL     1      -1.009   1.066  -0.615  0.00  0.00    +0.000 A 
ATOM      6  C13 UNL     1      -1.563   2.440  -0.535  0.00  0.00    +0.000 C 
ATOM      7  C14 UNL     1      -0.961   3.247  -1.665  0.00  0.00    +0.000 C 
ATOM      8  C15 UNL     1      -3.050   2.477  -0.706  0.00  0.00    +0.000 C 
ATOM      9  C16 UNL     1      -3.817   1.320  -0.251  0.00  0.00    +0.000 C 
ATOM     10  N5  UNL     1      -3.040   0.319   0.506  0.00  0.00    +0.000 N 
ATOM     11  C17 UNL     1      -3.470  -0.318   1.691  0.00  0.00    +0.000 C 
ATOM     12  C18 UNL     1      -1.770   0.017  -0.038  0.00  0.00    +0.000 A 
ENDROOT
BRANCH   1  14
ATOM     13  C1  UNL     1      -1.811  -2.650   2.034  0.00  0.00    +0.000 C 
ATOM     14  C2  UNL     1      -2.089  -2.322   0.614  0.00  0.00    +0.000 C 
ENDBRANCH   1  14
BRANCH   3  15
ATOM     15  C6  UNL     1       1.948  -0.815  -1.855  0.00  0.00    +0.000 C 
BRANCH  15  16
ATOM     16  C7  UNL     1       3.129  -0.486  -1.023  0.00  0.00    +0.000 A 
ATOM     17  C8  UNL     1       3.863   0.672  -1.311  0.00  0.00    +0.000 A 
ATOM     18  N1  UNL     1       4.920   0.931  -0.533  0.00  0.00    +0.000 NA
ATOM     19  C9  UNL     1       5.300   0.148   0.489  0.00  0.00    +0.000 A 
ATOM     20  N2  UNL     1       6.449   0.482   1.290  0.00  0.00    +0.000 N 
ATOM     21  N3  UNL     1       4.598  -0.958   0.763  0.00  0.00    +0.000 NA
ATOM     22  C10 UNL     1       3.511  -1.281   0.011  0.00  0.00    +0.000 A 
ATOM     23  N4  UNL     1       2.778  -2.455   0.306  0.00  0.00    +0.000 N 
ATOM     24  H10 UNL     1       6.297   0.960   2.201  0.00  0.00    +0.000 HD
ATOM     25  H11 UNL     1       7.409   0.260   0.982  0.00  0.00    +0.000 HD
ATOM     26  H12 UNL     1       2.068  -2.455   1.050  0.00  0.00    +0.000 HD
ATOM     27  H13 UNL     1       2.954  -3.323  -0.232  0.00  0.00    +0.000 HD
ENDBRANCH  15  16
ENDBRANCH   3  15
TORSDOF 3
