REMARK  Name = ./3D_structures\o58_MMV1582489_3D.pdb
REMARK  3 active torsions:
REMARK  status: ('A' for Active; 'I' for Inactive)
REMARK    1  A    between atoms: C1_1  and  C2_2
REMARK    2  A    between atoms: N3_9  and  C6_10
REMARK    3  A    between atoms: C6_10  and  C7_11
REMARK                            x       y       z     vdW  Elec       q    Type
REMARK                         _______ _______ _______ _____ _____    ______ ____
ROOT
ATOM      1  C1  UNL     1      -2.009  -1.705   1.339  0.00  0.00    +0.000 C 
ATOM      2  C2  UNL     1      -2.579  -0.502   0.673  0.00  0.00    +0.000 A 
ATOM      3  C3  UNL     1      -3.949  -0.235   0.691  0.00  0.00    +0.000 A 
ATOM      4  N1  UNL     1      -4.419   0.868   0.072  0.00  0.00    +0.000 N 
ATOM      5  C4  UNL     1      -3.542   1.680  -0.545  0.00  0.00    +0.000 A 
ATOM      6  O1  UNL     1      -4.015   2.715  -1.121  0.00  0.00    +0.000 OA
ATOM      7  N2  UNL     1      -2.207   1.425  -0.567  0.00  0.00    +0.000 NA
ATOM      8  C5  UNL     1      -1.690   0.339   0.035  0.00  0.00    +0.000 A 
ATOM      9  N3  UNL     1      -0.297   0.047   0.029  0.00  0.00    +0.000 N 
ATOM     10  H5  UNL     1      -5.453   1.074   0.084  0.00  0.00    +0.000 HD
ATOM     11  H6  UNL     1       0.065  -0.802   0.504  0.00  0.00    +0.000 HD
ENDROOT
BRANCH   9  12
ATOM     12  C6  UNL     1       0.631   0.930  -0.640  0.00  0.00    +0.000 C 
BRANCH  12  13
ATOM     13  C7  UNL     1       2.010   0.417  -0.508  0.00  0.00    +0.000 A 
ATOM     14  C8  UNL     1       2.825   0.766   0.536  0.00  0.00    +0.000 A 
ATOM     15  C9  UNL     1       4.100   0.280   0.640  0.00  0.00    +0.000 A 
ATOM     16  C10 UNL     1       4.596  -0.579  -0.309  0.00  0.00    +0.000 A 
ATOM     17  C11 UNL     1       3.806  -0.949  -1.367  0.00  0.00    +0.000 A 
ATOM     18  C12 UNL     1       2.539  -0.457  -1.459  0.00  0.00    +0.000 A 
ENDBRANCH  12  13
ENDBRANCH   9  12
TORSDOF 2
