REMARK  Name = ./3D_structures\o59_MMV1582488_3D.pdb
REMARK  10 active torsions:
REMARK  status: ('A' for Active; 'I' for Inactive)
REMARK    1  A    between atoms: C2_4  and  C18_33
REMARK    2  A    between atoms: N5_10  and  C6_11
REMARK    3  A    between atoms: C7_13  and  C8_14
REMARK    4  A    between atoms: C8_14  and  O2_15
REMARK    5  A    between atoms: O2_15  and  S1_16
REMARK    6  A    between atoms: S1_16  and  N6_19
REMARK    7  A    between atoms: C9_20  and  C10_22
REMARK    8  A    between atoms: C15_27  and  O6_28
REMARK    9  A    between atoms: C16_29  and  O7_30
REMARK   10  A    between atoms: C17_31  and  O8_32
REMARK                            x       y       z     vdW  Elec       q    Type
REMARK                         _______ _______ _______ _____ _____    ______ ____
ROOT
ATOM      1  C6  UNL     1      -1.481  -2.418   0.123  0.00  0.00    +0.000 C 
ATOM      2  O1  UNL     1      -0.422  -1.834   0.854  0.00  0.00    +0.000 OA
ATOM      3  C7  UNL     1       0.604  -2.018  -0.103  0.00  0.00    +0.000 C 
ATOM      4  C16 UNL     1       0.015  -1.212  -1.232  0.00  0.00    +0.000 C 
ATOM      5  C17 UNL     1      -1.369  -1.899  -1.302  0.00  0.00    +0.000 C 
ENDROOT
BRANCH   1  15
ATOM      6  N1  UNL     1      -7.145  -1.401   2.113  0.00  0.00    +0.000 N 
ATOM      7  C1  UNL     1      -5.977  -0.983   1.426  0.00  0.00    +0.000 C 
ATOM      8  N2  UNL     1      -5.900   0.206   0.819  0.00  0.00    +0.000 NA
ATOM      9  C2  UNL     1      -4.795   0.628   0.142  0.00  0.00    +0.000 C 
ATOM     10  N3  UNL     1      -3.710  -0.160   0.053  0.00  0.00    +0.000 NA
ATOM     11  C3  UNL     1      -3.732  -1.380   0.648  0.00  0.00    +0.000 A 
ATOM     12  C4  UNL     1      -4.860  -1.783   1.331  0.00  0.00    +0.000 A 
ATOM     13  N4  UNL     1      -4.590  -3.008   1.812  0.00  0.00    +0.000 NA
ATOM     14  C5  UNL     1      -3.348  -3.338   1.432  0.00  0.00    +0.000 A 
ATOM     15  N5  UNL     1      -2.777  -2.336   0.692  0.00  0.00    +0.000 N 
ATOM     16  H1  UNL     1      -7.986  -0.806   2.168  0.00  0.00    +0.000 HD
ATOM     17  H2  UNL     1      -7.205  -2.346   2.594  0.00  0.00    +0.000 HD
BRANCH   9  18
ATOM     18  C18 UNL     1      -4.857   1.953  -0.498  0.00  0.00    +0.000 A 
ATOM     19  C19 UNL     1      -6.043   2.649  -0.503  0.00  0.00    +0.000 A 
ATOM     20  C20 UNL     1      -6.181   3.894  -1.065  0.00  0.00    +0.000 A 
ATOM     21  C21 UNL     1      -5.093   4.501  -1.661  0.00  0.00    +0.000 A 
ATOM     22  C22 UNL     1      -3.890   3.803  -1.656  0.00  0.00    +0.000 A 
ATOM     23  C23 UNL     1      -3.772   2.535  -1.076  0.00  0.00    +0.000 A 
ENDBRANCH   9  18
ENDBRANCH   1  15
BRANCH   4  24
ATOM     24  O7  UNL     1       0.682  -1.311  -2.425  0.00  0.00    +0.000 OA
ATOM     25  H15 UNL     1       0.107  -0.888  -3.120  0.00  0.00    +0.000 HD
ENDBRANCH   4  24
BRANCH   5  26
ATOM     26  O8  UNL     1      -1.316  -2.940  -2.222  0.00  0.00    +0.000 OA
ATOM     27  H17 UNL     1      -1.124  -3.766  -1.729  0.00  0.00    +0.000 HD
ENDBRANCH   5  26
BRANCH   3  28
ATOM     28  C8  UNL     1       1.964  -1.622   0.331  0.00  0.00    +0.000 C 
BRANCH  28  29
ATOM     29  O2  UNL     1       2.366  -2.373   1.407  0.00  0.00    +0.000 OA
BRANCH  29  30
ATOM     30  S1  UNL     1       3.911  -2.059   1.881  0.00  0.00    +0.000 S 
ATOM     31  O3  UNL     1       4.049  -1.562   3.295  0.00  0.00    +0.000 OA
ATOM     32  O4  UNL     1       4.663  -3.388   1.821  0.00  0.00    +0.000 OA
BRANCH  30  33
ATOM     33  N6  UNL     1       4.798  -0.987   0.825  0.00  0.00    +0.000 N 
ATOM     34  C9  UNL     1       5.439   0.162   1.316  0.00  0.00    +0.000 C 
ATOM     35  O5  UNL     1       5.297   0.344   2.582  0.00  0.00    +0.000 OA
ATOM     36  H8  UNL     1       4.854  -1.212  -0.175  0.00  0.00    +0.000 HD
BRANCH  34  37
ATOM     37  C10 UNL     1       6.220   1.135   0.589  0.00  0.00    +0.000 A 
ATOM     38  C11 UNL     1       6.847   2.172   1.300  0.00  0.00    +0.000 A 
ATOM     39  C12 UNL     1       7.651   3.096   0.710  0.00  0.00    +0.000 A 
ATOM     40  C13 UNL     1       7.858   3.017  -0.636  0.00  0.00    +0.000 A 
ATOM     41  C14 UNL     1       7.269   2.027  -1.384  0.00  0.00    +0.000 A 
ATOM     42  C15 UNL     1       6.451   1.095  -0.742  0.00  0.00    +0.000 A 
BRANCH  42  43
ATOM     43  O6  UNL     1       5.888   0.123  -1.559  0.00  0.00    +0.000 OA
ATOM     44  H13 UNL     1       6.070   0.032  -2.544  0.00  0.00    +0.000 HD
ENDBRANCH  42  43
ENDBRANCH  34  37
ENDBRANCH  30  33
ENDBRANCH  29  30
ENDBRANCH  28  29
ENDBRANCH   3  28
TORSDOF 10
