REMARK  Name = ./3D_structures\o5_MMV002169_3D.pdb
REMARK  2 active torsions:
REMARK  status: ('A' for Active; 'I' for Inactive)
REMARK    1  A    between atoms: N1_1  and  N2_2
REMARK    2  A    between atoms: C1_3  and  C2_5
REMARK                            x       y       z     vdW  Elec       q    Type
REMARK                         _______ _______ _______ _____ _____    ______ ____
ROOT
ATOM      1  N2  UNL     1       2.093   0.363   0.149  0.00  0.00    +0.000 N 
ATOM      2  C1  UNL     1       1.044  -0.571   0.288  0.00  0.00    +0.000 C 
ATOM      3  O1  UNL     1       1.366  -1.783   0.478  0.00  0.00    +0.000 OA
ATOM      4  H3  UNL     1       1.869   1.372  -0.009  0.00  0.00    +0.000 HD
ENDROOT
BRANCH   2   5
ATOM      5  C2  UNL     1      -0.374  -0.220   0.225  0.00  0.00    +0.000 A 
ATOM      6  C3  UNL     1      -1.324  -1.206   0.373  0.00  0.00    +0.000 A 
ATOM      7  C4  UNL     1      -2.650  -0.854   0.310  0.00  0.00    +0.000 A 
ATOM      8  N3  UNL     1      -3.061   0.404   0.112  0.00  0.00    +0.000 NA
ATOM      9  C5  UNL     1      -2.167   1.383  -0.034  0.00  0.00    +0.000 A 
ATOM     10  C6  UNL     1      -0.826   1.066   0.023  0.00  0.00    +0.000 A 
ENDBRANCH   2   5
BRANCH   1  11
ATOM     11  N1  UNL     1       3.434  -0.087   0.227  0.00  0.00    +0.000 NA
ATOM     12  H1  UNL     1       3.509  -0.954   0.773  0.00  0.00    +0.000 HD
ATOM     13  H2  UNL     1       4.060   0.672   0.577  0.00  0.00    +0.000 HD
ENDBRANCH   1  11
TORSDOF 2
