REMARK  Name = ./3D_structures\o60_MMV002665_3D.pdb
REMARK  4 active torsions:
REMARK  status: ('A' for Active; 'I' for Inactive)
REMARK    1  A    between atoms: N1_1  and  C1_2
REMARK    2  A    between atoms: C1_2  and  C2_3
REMARK    3  A    between atoms: C5_6  and  S1_9
REMARK    4  A    between atoms: S1_9  and  N2_12
REMARK                            x       y       z     vdW  Elec       q    Type
REMARK                         _______ _______ _______ _____ _____    ______ ____
ROOT
ATOM      1  C2  UNL     1      -1.468  -0.314   0.013  0.00  0.00    +0.000 A 
ATOM      2  C3  UNL     1      -0.753  -0.116   1.177  0.00  0.00    +0.000 A 
ATOM      3  C4  UNL     1       0.626  -0.162   1.230  0.00  0.00    +0.000 A 
ATOM      4  C5  UNL     1       1.333  -0.415   0.073  0.00  0.00    +0.000 A 
ATOM      5  C6  UNL     1       0.660  -0.620  -1.119  0.00  0.00    +0.000 A 
ATOM      6  C7  UNL     1      -0.723  -0.566  -1.130  0.00  0.00    +0.000 A 
ENDROOT
BRANCH   4   7
ATOM      7  S1  UNL     1       3.082  -0.491   0.045  0.00  0.00    +0.000 S 
ATOM      8  O1  UNL     1       3.530  -1.452  -1.012  0.00  0.00    +0.000 OA
ATOM      9  O2  UNL     1       3.598  -0.900   1.410  0.00  0.00    +0.000 OA
BRANCH   7  10
ATOM     10  N2  UNL     1       3.639   1.123  -0.281  0.00  0.00    +0.000 NA
ATOM     11  H9  UNL     1       3.049   1.480  -1.064  0.00  0.00    +0.000 HD
ATOM     12  H10 UNL     1       3.518   1.655   0.593  0.00  0.00    +0.000 HD
ENDBRANCH   7  10
ENDBRANCH   4   7
BRANCH   1  13
ATOM     13  C1  UNL     1      -2.954  -0.263  -0.032  0.00  0.00    +0.000 C 
BRANCH  13  14
ATOM     14  N1  UNL     1      -3.449   1.067  -0.302  0.00  0.00    +0.000 NA
ATOM     15  H1  UNL     1      -4.246   1.306   0.362  0.00  0.00    +0.000 HD
ATOM     16  H2  UNL     1      -2.642   1.727  -0.115  0.00  0.00    +0.000 HD
ENDBRANCH  13  14
ENDBRANCH   1  13
TORSDOF 4
