REMARK  Name = ./3D_structures\o61_MMV1581559_3D.pdb
REMARK  9 active torsions:
REMARK  status: ('A' for Active; 'I' for Inactive)
REMARK    1  A    between atoms: C1_1  and  C2_2
REMARK    2  A    between atoms: C2_2  and  C3_3
REMARK    3  A    between atoms: C2_2  and  C4_4
REMARK    4  A    between atoms: C4_4  and  N1_5
REMARK    5  A    between atoms: N2_8  and  C6_9
REMARK    6  A    between atoms: N4_15  and  C10_16
REMARK    7  A    between atoms: C10_16  and  C11_17
REMARK    8  A    between atoms: C21_27  and  C22_28
REMARK    9  A    between atoms: N6_32  and  C25_33
REMARK                            x       y       z     vdW  Elec       q    Type
REMARK                         _______ _______ _______ _____ _____    ______ ____
ROOT
ATOM      1  N1  UNL     1      -2.749  -0.515   0.111  0.00  0.00    +0.000 N 
ATOM      2  C5  UNL     1      -3.716   0.209  -0.422  0.00  0.00    +0.000 A 
ATOM      3  O1  UNL     1      -4.779  -0.370  -0.789  0.00  0.00    +0.000 OA
ATOM      4  N2  UNL     1      -3.609   1.530  -0.585  0.00  0.00    +0.000 N 
ATOM      5  C6  UNL     1      -4.694   2.284  -1.174  0.00  0.00    +0.000 C 
ATOM      6  C7  UNL     1      -2.458   2.133  -0.182  0.00  0.00    +0.000 A 
ATOM      7  O2  UNL     1      -2.408   3.353  -0.336  0.00  0.00    +0.000 OA
ATOM      8  C8  UNL     1      -1.404   1.449   0.379  0.00  0.00    +0.000 A 
ATOM      9  C9  UNL     1      -1.580   0.103   0.519  0.00  0.00    +0.000 A 
ATOM     10  N3  UNL     1      -0.506  -0.343   1.109  0.00  0.00    +0.000 NA
ATOM     11  N4  UNL     1       0.405   0.610   1.382  0.00  0.00    +0.000 N 
ATOM     12  C21 UNL     1      -0.145   1.776   0.922  0.00  0.00    +0.000 A 
ENDROOT
BRANCH  12  13
ATOM     13  C22 UNL     1       0.548   3.018   0.670  0.00  0.00    +0.000 A 
ATOM     14  C23 UNL     1       0.236   3.906  -0.363  0.00  0.00    +0.000 A 
ATOM     15  N5  UNL     1       0.858   5.084  -0.219  0.00  0.00    +0.000 NA
ATOM     16  C24 UNL     1       1.572   4.984   0.887  0.00  0.00    +0.000 A 
ATOM     17  N6  UNL     1       1.385   3.731   1.433  0.00  0.00    +0.000 N 
ATOM     18  C25 UNL     1       1.952   3.424   2.707  0.00  0.00    +0.000 C 
ENDBRANCH  12  13
BRANCH   1  19
ATOM     19  C4  UNL     1      -2.767  -1.949   0.304  0.00  0.00    +0.000 C 
BRANCH  19  21
ATOM     20  C1  UNL     1      -2.130  -4.106  -0.673  0.00  0.00    +0.000 C 
ATOM     21  C2  UNL     1      -2.110  -2.605  -0.877  0.00  0.00    +0.000 C 
ATOM     22  C3  UNL     1      -2.755  -2.186  -2.147  0.00  0.00    +0.000 C 
ENDBRANCH  19  21
ENDBRANCH   1  19
BRANCH  11  23
ATOM     23  C10 UNL     1       1.689   0.278   1.939  0.00  0.00    +0.000 C 
BRANCH  23  24
ATOM     24  C11 UNL     1       2.617  -0.082   0.839  0.00  0.00    +0.000 A 
ATOM     25  C12 UNL     1       3.427   0.896   0.319  0.00  0.00    +0.000 A 
ATOM     26  C13 UNL     1       4.287   0.680  -0.742  0.00  0.00    +0.000 A 
ATOM     27  C14 UNL     1       4.321  -0.576  -1.292  0.00  0.00    +0.000 A 
ATOM     28  C15 UNL     1       3.518  -1.573  -0.786  0.00  0.00    +0.000 A 
ATOM     29  C16 UNL     1       3.608  -2.808  -1.370  0.00  0.00    +0.000 A 
ATOM     30  C17 UNL     1       2.843  -3.855  -0.906  0.00  0.00    +0.000 A 
ATOM     31  C18 UNL     1       1.989  -3.643   0.152  0.00  0.00    +0.000 A 
ATOM     32  C19 UNL     1       1.891  -2.391   0.750  0.00  0.00    +0.000 A 
ATOM     33  C20 UNL     1       2.647  -1.335   0.298  0.00  0.00    +0.000 A 
ENDBRANCH  23  24
ENDBRANCH  11  23
TORSDOF 5
