REMARK  Name = ./3D_structures\o62_MMV1581545_3D.pdb
REMARK  4 active torsions:
REMARK  status: ('A' for Active; 'I' for Inactive)
REMARK    1  A    between atoms: C1_1  and  C2_2
REMARK    2  A    between atoms: C4_4  and  O1_5
REMARK    3  A    between atoms: C8_10  and  O3_11
REMARK    4  A    between atoms: C10_14  and  O4_15
REMARK                            x       y       z     vdW  Elec       q    Type
REMARK                         _______ _______ _______ _____ _____    ______ ____
ROOT
ATOM      1  C1  UNL     1       4.754  -0.498  -0.352  0.00  0.00    +0.000 C 
ATOM      2  C2  UNL     1       3.367  -0.129   0.005  0.00  0.00    +0.000 A 
ATOM      3  C3  UNL     1       3.155   0.779   1.034  0.00  0.00    +0.000 A 
ATOM      4  C4  UNL     1       1.860   1.113   1.355  0.00  0.00    +0.000 A 
ATOM      5  C5  UNL     1       0.817   0.537   0.647  0.00  0.00    +0.000 A 
ATOM      6  C6  UNL     1      -0.577   0.872   0.965  0.00  0.00    +0.000 C 
ATOM      7  O2  UNL     1      -0.729   1.694   1.898  0.00  0.00    +0.000 OA
ATOM      8  C7  UNL     1      -1.714   0.294   0.249  0.00  0.00    +0.000 A 
ATOM      9  C8  UNL     1      -3.018   0.608   0.548  0.00  0.00    +0.000 A 
ATOM     10  C9  UNL     1      -4.068   0.011  -0.185  0.00  0.00    +0.000 A 
ATOM     11  I1  UNL     1      -6.050   0.515   0.299  0.00  0.00    +0.000 I 
ATOM     12  C10 UNL     1      -3.845  -0.875  -1.188  0.00  0.00    +0.000 A 
ATOM     13  C11 UNL     1      -2.543  -1.191  -1.489  0.00  0.00    +0.000 A 
ATOM     14  I2  UNL     1      -2.145  -2.561  -3.038  0.00  0.00    +0.000 I 
ATOM     15  C12 UNL     1      -1.490  -0.611  -0.776  0.00  0.00    +0.000 A 
ATOM     16  C13 UNL     1      -0.108  -0.947  -1.095  0.00  0.00    +0.000 C 
ATOM     17  O5  UNL     1       0.080  -1.776  -2.036  0.00  0.00    +0.000 OA
ATOM     18  C14 UNL     1       1.022  -0.365  -0.376  0.00  0.00    +0.000 A 
ATOM     19  C15 UNL     1       2.325  -0.699  -0.697  0.00  0.00    +0.000 A 
ENDROOT
BRANCH   4  20
ATOM     20  O1  UNL     1       1.641   2.014   2.376  0.00  0.00    +0.000 OA
ATOM     21  H5  UNL     1       2.440   2.398   2.853  0.00  0.00    +0.000 HD
ENDBRANCH   4  20
BRANCH   9  22
ATOM     22  O3  UNL     1      -3.331   1.484   1.536  0.00  0.00    +0.000 OA
ATOM     23  H6  UNL     1      -2.807   2.002   2.153  0.00  0.00    +0.000 HD
ENDBRANCH   9  22
BRANCH  12  24
ATOM     24  O4  UNL     1      -4.922  -1.437  -1.882  0.00  0.00    +0.000 OA
ATOM     25  H7  UNL     1      -5.874  -1.192  -1.646  0.00  0.00    +0.000 HD
ENDBRANCH  12  24
TORSDOF 3
