REMARK  Name = ./3D_structures\o63_MMV1580855_3D.pdb
REMARK  4 active torsions:
REMARK  status: ('A' for Active; 'I' for Inactive)
REMARK    1  A    between atoms: O1_1  and  C1_2
REMARK    2  A    between atoms: C1_2  and  C2_4
REMARK    3  A    between atoms: C5_8  and  S2_9
REMARK    4  A    between atoms: S2_9  and  N1_12
REMARK                            x       y       z     vdW  Elec       q    Type
REMARK                         _______ _______ _______ _____ _____    ______ ____
ROOT
ATOM      1  S2  UNL     1       1.143  -1.110  -0.412  0.00  0.00    +0.000 S 
ATOM      2  O3  UNL     1       1.076  -2.109   0.712  0.00  0.00    +0.000 OA
ATOM      3  O4  UNL     1       1.969  -1.643  -1.548  0.00  0.00    +0.000 OA
ENDROOT
BRANCH   1   4
ATOM      4  N1  UNL     1      -0.439  -0.765  -0.958  0.00  0.00    +0.000 N 
ATOM      5  C6  UNL     1      -0.878  -0.940  -2.220  0.00  0.00    +0.000 A 
ATOM      6  C7  UNL     1      -2.193  -0.554  -2.292  0.00  0.00    +0.000 A 
ATOM      7  C8  UNL     1      -2.576  -0.124  -1.019  0.00  0.00    +0.000 A 
ATOM      8  C9  UNL     1      -3.773   0.364  -0.518  0.00  0.00    +0.000 A 
ATOM      9  C10 UNL     1      -3.867   0.714   0.800  0.00  0.00    +0.000 A 
ATOM     10 BR1  UNL     1      -5.510   1.397   1.543  0.00  0.00    +0.000 Br
ATOM     11  C11 UNL     1      -2.751   0.569   1.603  0.00  0.00    +0.000 A 
ATOM     12  C12 UNL     1      -1.567   0.085   1.104  0.00  0.00    +0.000 A 
ATOM     13  C13 UNL     1      -1.456  -0.275  -0.236  0.00  0.00    +0.000 A 
ENDBRANCH   1   4
BRANCH   1  18
ATOM     14  C2  UNL     1       3.262   0.218   0.664  0.00  0.00    +0.000 A 
ATOM     15  S1  UNL     1       3.701   1.832   1.129  0.00  0.00    +0.000 S 
ATOM     16  C3  UNL     1       2.133   2.604   0.649  0.00  0.00    +0.000 A 
ATOM     17  C4  UNL     1       1.422   1.562   0.180  0.00  0.00    +0.000 A 
ATOM     18  C5  UNL     1       1.975   0.350   0.180  0.00  0.00    +0.000 A 
BRANCH  14  19
ATOM     19  C1  UNL     1       4.103  -0.972   0.779  0.00  0.00    +0.000 C 
ATOM     20  O2  UNL     1       5.252  -0.816   1.263  0.00  0.00    +0.000 OA
BRANCH  19  21
ATOM     21  O1  UNL     1       3.668  -2.222   0.378  0.00  0.00    +0.000 OA
ATOM     22  H1  UNL     1       4.244  -3.036   0.628  0.00  0.00    +0.000 HD
ENDBRANCH  19  21
ENDBRANCH  14  19
ENDBRANCH   1  18
TORSDOF 4
