REMARK  Name = ./3D_structures\o64_MMV1580852_3D.pdb
REMARK  8 active torsions:
REMARK  status: ('A' for Active; 'I' for Inactive)
REMARK    1  A    between atoms: C1_1  and  C2_2
REMARK    2  A    between atoms: C2_2  and  C3_3
REMARK    3  A    between atoms: C3_3  and  C4_4
REMARK    4  A    between atoms: C4_4  and  C5_5
REMARK    5  A    between atoms: C8_8  and  C11_11
REMARK    6  A    between atoms: C13_13  and  C22_24
REMARK    7  A    between atoms: C15_15  and  C16_17
REMARK    8  A    between atoms: C22_24  and  O2_26
REMARK                            x       y       z     vdW  Elec       q    Type
REMARK                         _______ _______ _______ _____ _____    ______ ____
ROOT
ATOM      1  C11 UNL     1      -1.117   0.273  -0.967  0.00  0.00    +0.000 A 
ATOM      2  C12 UNL     1      -1.474   0.295  -2.290  0.00  0.00    +0.000 A 
ATOM      3  C13 UNL     1      -2.799   0.079  -2.632  0.00  0.00    +0.000 A 
ATOM      4  C14 UNL     1      -3.732  -0.153  -1.643  0.00  0.00    +0.000 A 
ATOM      5  C15 UNL     1      -3.377  -0.176  -0.327  0.00  0.00    +0.000 A 
ATOM      6  N1  UNL     1      -2.082   0.038  -0.043  0.00  0.00    +0.000 NA
ENDROOT
BRANCH   5   7
ATOM      7  C16 UNL     1      -4.337  -0.420   0.760  0.00  0.00    +0.000 A 
ATOM      8  C17 UNL     1      -3.874  -0.422   2.068  0.00  0.00    +0.000 A 
ATOM      9  C18 UNL     1      -4.720  -0.645   3.134  0.00  0.00    +0.000 A 
ATOM     10  C19 UNL     1      -6.079  -0.875   2.927  0.00  0.00    +0.000 A 
ATOM     11 CL1  UNL     1      -7.149  -1.157   4.291  0.00  0.00    +0.000 Cl
ATOM     12  C20 UNL     1      -6.527  -0.871   1.626  0.00  0.00    +0.000 A 
ATOM     13  C21 UNL     1      -5.664  -0.645   0.547  0.00  0.00    +0.000 A 
ENDBRANCH   5   7
BRANCH   1  17
ATOM     14  C5  UNL     1       2.856   0.900   0.371  0.00  0.00    +0.000 A 
ATOM     15  C6  UNL     1       1.848   0.659   1.274  0.00  0.00    +0.000 A 
ATOM     16  C7  UNL     1       0.546   0.454   0.831  0.00  0.00    +0.000 A 
ATOM     17  C8  UNL     1       0.253   0.490  -0.515  0.00  0.00    +0.000 A 
ATOM     18  C9  UNL     1       1.238   0.727  -1.436  0.00  0.00    +0.000 A 
ATOM     19  C10 UNL     1       2.540   0.930  -0.970  0.00  0.00    +0.000 A 
BRANCH  14  20
ATOM     20  C4  UNL     1       4.259   1.123   0.818  0.00  0.00    +0.000 C 
BRANCH  20  21
ATOM     21  C3  UNL     1       4.934  -0.218   0.861  0.00  0.00    +0.000 C 
BRANCH  21  23
ATOM     22  C1  UNL     1       7.105   0.796   0.335  0.00  0.00    +0.000 C 
ATOM     23  C2  UNL     1       6.379  -0.090   1.310  0.00  0.00    +0.000 C 
ENDBRANCH  21  23
ENDBRANCH  20  21
ENDBRANCH  14  20
ENDBRANCH   1  17
BRANCH   3  24
ATOM     24  C22 UNL     1      -3.168   0.106  -4.047  0.00  0.00    +0.000 C 
ATOM     25  O1  UNL     1      -4.366  -0.090  -4.346  0.00  0.00    +0.000 OA
BRANCH  24  26
ATOM     26  O2  UNL     1      -2.254   0.336  -5.055  0.00  0.00    +0.000 OA
ATOM     27  H20 UNL     1      -2.498   0.433  -6.037  0.00  0.00    +0.000 HD
ENDBRANCH  24  26
ENDBRANCH   3  24
TORSDOF 7
