REMARK  Name = ./3D_structures\o65_MMV1580849_3D.pdb
REMARK  7 active torsions:
REMARK  status: ('A' for Active; 'I' for Inactive)
REMARK    1  A    between atoms: C1_1  and  O1_2
REMARK    2  A    between atoms: O1_2  and  C2_3
REMARK    3  A    between atoms: C4_5  and  C5_6
REMARK    4  A    between atoms: C5_6  and  C6_7
REMARK    5  A    between atoms: C11_16  and  C12_17
REMARK    6  A    between atoms: C12_17  and  C13_18
REMARK    7  A    between atoms: C15_20  and  O2_21
REMARK                            x       y       z     vdW  Elec       q    Type
REMARK                         _______ _______ _______ _____ _____    ______ ____
ROOT
ATOM      1  C2  UNL     1      -1.639   1.394   0.124  0.00  0.00    +0.000 A 
ATOM      2  C3  UNL     1      -0.289   1.180   0.180  0.00  0.00    +0.000 A 
ATOM      3  C4  UNL     1       0.270  -0.105   0.148  0.00  0.00    +0.000 A 
ATOM      4  C10 UNL     1      -0.610  -1.200   0.038  0.00  0.00    +0.000 A 
ATOM      5  C11 UNL     1      -1.951  -1.027  -0.019  0.00  0.00    +0.000 A 
ATOM      6  C15 UNL     1      -2.453   0.208   0.026  0.00  0.00    +0.000 A 
ENDROOT
BRANCH   1   8
ATOM      7  C1  UNL     1      -3.042   3.552   0.188  0.00  0.00    +0.000 C 
ATOM      8  O1  UNL     1      -2.347   2.475   0.155  0.00  0.00    +0.000 OA
ENDBRANCH   1   8
BRANCH   6   9
ATOM      9  O2  UNL     1      -3.844   0.436   0.065  0.00  0.00    +0.000 OA
ATOM     10  H18 UNL     1      -4.179   1.378   0.377  0.00  0.00    +0.000 HD
ENDBRANCH   6   9
BRANCH   3  11
ATOM     11  C5  UNL     1       1.593  -0.401   0.595  0.00  0.00    +0.000 C 
BRANCH  11  12
ATOM     12  C6  UNL     1       2.875  -0.454   0.039  0.00  0.00    +0.000 A 
ATOM     13  C7  UNL     1       3.385  -1.716  -0.389  0.00  0.00    +0.000 A 
ATOM     14  N1  UNL     1       4.643  -1.836  -0.685  0.00  0.00    +0.000 NA
ATOM     15  C8  UNL     1       5.504  -0.783  -0.602  0.00  0.00    +0.000 A 
ATOM     16  N2  UNL     1       6.900  -1.056  -0.775  0.00  0.00    +0.000 N 
ATOM     17  N3  UNL     1       5.075   0.393  -0.221  0.00  0.00    +0.000 NA
ATOM     18  C9  UNL     1       3.765   0.617   0.112  0.00  0.00    +0.000 A 
ATOM     19  N4  UNL     1       3.346   1.907   0.553  0.00  0.00    +0.000 N 
ATOM     20  H8  UNL     1       7.554  -0.484  -1.267  0.00  0.00    +0.000 HD
ATOM     21  H9  UNL     1       7.189  -1.953  -0.288  0.00  0.00    +0.000 HD
ATOM     22  H10 UNL     1       3.014   2.647  -0.085  0.00  0.00    +0.000 HD
ATOM     23  H11 UNL     1       3.378   2.135   1.593  0.00  0.00    +0.000 HD
ENDBRANCH  11  12
ENDBRANCH   3  11
BRANCH   5  24
ATOM     24  C12 UNL     1      -2.934  -2.134  -0.189  0.00  0.00    +0.000 C 
BRANCH  24  25
ATOM     25  C13 UNL     1      -4.287  -1.551  -0.554  0.00  0.00    +0.000 C 
ATOM     26  C14 UNL     1      -5.327  -1.680   0.190  0.00  0.00    +0.000 C 
ENDBRANCH  24  25
ENDBRANCH   5  24
TORSDOF 6
