REMARK  Name = ./3D_structures\o66_MMV1580839_3D.pdb
REMARK  1 active torsions:
REMARK  status: ('A' for Active; 'I' for Inactive)
REMARK    1  A    between atoms: N3_5  and  C3_6
REMARK                            x       y       z     vdW  Elec       q    Type
REMARK                         _______ _______ _______ _____ _____    ______ ____
ROOT
ATOM      1  N1  UNL     1       2.433  -4.741  -0.286  0.00  0.00    +0.000 N 
ATOM      2  C1  UNL     1       1.749  -3.500  -0.302  0.00  0.00    +0.000 C 
ATOM      3  N2  UNL     1       0.405  -3.378  -0.243  0.00  0.00    +0.000 NA
ATOM      4  C2  UNL     1      -0.213  -2.186  -0.260  0.00  0.00    +0.000 C 
ATOM      5  N3  UNL     1      -1.622  -2.149  -0.196  0.00  0.00    +0.000 N 
ATOM      6  N4  UNL     1       0.564  -1.103  -0.339  0.00  0.00    +0.000 NA
ATOM      7  C12 UNL     1       1.913  -1.142  -0.400  0.00  0.00    +0.000 C 
ATOM      8  N5  UNL     1       2.487  -2.380  -0.380  0.00  0.00    +0.000 NA
ATOM      9  N6  UNL     1       2.714   0.010  -0.483  0.00  0.00    +0.000 N 
ATOM     10  C13 UNL     1       4.141  -0.102  -0.539  0.00  0.00    +0.000 C 
ATOM     11  C14 UNL     1       4.845   1.118  -0.041  0.00  0.00    +0.000 C 
ATOM     12  C15 UNL     1       4.303   2.402  -0.574  0.00  0.00    +0.000 C 
ATOM     13  C16 UNL     1       3.051   2.183  -1.354  0.00  0.00    +0.000 C 
ATOM     14  C17 UNL     1       2.111   1.309  -0.512  0.00  0.00    +0.000 C 
ATOM     15  H1  UNL     1       3.047  -5.065   0.484  0.00  0.00    +0.000 HD
ATOM     16  H2  UNL     1       2.309  -5.372  -1.108  0.00  0.00    +0.000 HD
ATOM     17  H3  UNL     1      -2.142  -3.052  -0.137  0.00  0.00    +0.000 HD
ENDROOT
BRANCH   5  18
ATOM     18  C3  UNL     1      -2.399  -0.944  -0.205  0.00  0.00    +0.000 C 
ATOM     19  C4  UNL     1      -2.056  -0.030   0.972  0.00  0.00    +0.000 C 
ATOM     20  C5  UNL     1      -3.241   0.862   0.941  0.00  0.00    +0.000 A 
ATOM     21  C6  UNL     1      -3.425   2.159   1.331  0.00  0.00    +0.000 A 
ATOM     22  C7  UNL     1      -4.645   2.813   1.206  0.00  0.00    +0.000 A 
ATOM     23  C8  UNL     1      -5.718   2.141   0.671  0.00  0.00    +0.000 A 
ATOM     24  F1  UNL     1      -6.944   2.744   0.527  0.00  0.00    +0.000 F 
ATOM     25  C9  UNL     1      -5.526   0.822   0.275  0.00  0.00    +0.000 A 
ATOM     26  C10 UNL     1      -4.316   0.186   0.403  0.00  0.00    +0.000 A 
ATOM     27  C11 UNL     1      -3.867  -1.182   0.067  0.00  0.00    +0.000 C 
ENDBRANCH   5  18
TORSDOF 1
