REMARK  Name = ./3D_structures\o67_MMV1579779_3D.pdb
REMARK  5 active torsions:
REMARK  status: ('A' for Active; 'I' for Inactive)
REMARK    1  A    between atoms: C1_1  and  C2_2
REMARK    2  A    between atoms: N1_4  and  C3_5
REMARK    3  A    between atoms: C5_7  and  N2_8
REMARK    4  A    between atoms: N2_8  and  S1_9
REMARK    5  A    between atoms: S1_9  and  C6_12
REMARK                            x       y       z     vdW  Elec       q    Type
REMARK                         _______ _______ _______ _____ _____    ______ ____
ROOT
ATOM      1  C3  UNL     1       2.496  -0.342  -0.196  0.00  0.00    +0.000 A 
ATOM      2  C4  UNL     1       1.593   0.258  -1.017  0.00  0.00    +0.000 A 
ATOM      3  C5  UNL     1       0.197   0.115  -0.821  0.00  0.00    +0.000 A 
ATOM      4  C12 UNL     1      -0.274  -0.644   0.217  0.00  0.00    +0.000 A 
ATOM      5  C13 UNL     1       0.617  -1.261   1.062  0.00  0.00    +0.000 A 
ATOM      6  C14 UNL     1       0.418  -2.075   2.176  0.00  0.00    +0.000 A 
ATOM      7 CL2  UNL     1      -1.094  -2.584   2.873  0.00  0.00    +0.000 Cl
ATOM      8  N3  UNL     1       1.658  -2.384   2.599  0.00  0.00    +0.000 NA
ATOM      9  N4  UNL     1       2.572  -1.805   1.806  0.00  0.00    +0.000 N 
ATOM     10  C15 UNL     1       1.947  -1.104   0.847  0.00  0.00    +0.000 A 
ATOM     11  H12 UNL     1       3.619  -1.893   1.926  0.00  0.00    +0.000 HD
ENDROOT
BRANCH   1  15
ATOM     12  C1  UNL     1       6.108   0.487  -1.333  0.00  0.00    +0.000 C 
ATOM     13  C2  UNL     1       4.602   0.466  -1.304  0.00  0.00    +0.000 C 
ATOM     14  O1  UNL     1       3.986   1.109  -2.183  0.00  0.00    +0.000 OA
ATOM     15  N1  UNL     1       3.889  -0.242  -0.334  0.00  0.00    +0.000 N 
ATOM     16  H4  UNL     1       4.510  -0.761   0.376  0.00  0.00    +0.000 HD
ENDBRANCH   1  15
BRANCH   3  17
ATOM     17  N2  UNL     1      -0.670   0.795  -1.728  0.00  0.00    +0.000 N 
ATOM     18  H6  UNL     1      -0.450   0.638  -2.746  0.00  0.00    +0.000 HD
BRANCH  17  19
ATOM     19  S1  UNL     1      -1.974   1.795  -1.323  0.00  0.00    +0.000 S 
ATOM     20  O2  UNL     1      -1.406   2.965  -0.533  0.00  0.00    +0.000 OA
ATOM     21  O3  UNL     1      -2.539   2.402  -2.605  0.00  0.00    +0.000 OA
BRANCH  19  22
ATOM     22  C6  UNL     1      -3.241   1.005  -0.433  0.00  0.00    +0.000 A 
ATOM     23  C7  UNL     1      -4.187   0.257  -1.143  0.00  0.00    +0.000 A 
ATOM     24  C8  UNL     1      -5.234  -0.380  -0.502  0.00  0.00    +0.000 A 
ATOM     25  C9  UNL     1      -5.381  -0.301   0.855  0.00  0.00    +0.000 A 
ATOM     26 CL1  UNL     1      -6.664  -1.068   1.738  0.00  0.00    +0.000 Cl
ATOM     27  C10 UNL     1      -4.437   0.444   1.552  0.00  0.00    +0.000 A 
ATOM     28  C11 UNL     1      -3.394   1.080   0.926  0.00  0.00    +0.000 A 
ENDBRANCH  19  22
ENDBRANCH  17  19
ENDBRANCH   3  17
TORSDOF 4
