REMARK  Name = ./3D_structures\o68_MMV1579778_3D.pdb
REMARK  10 active torsions:
REMARK  status: ('A' for Active; 'I' for Inactive)
REMARK    1  A    between atoms: C1_1  and  C2_2
REMARK    2  A    between atoms: C2_2  and  N1_3
REMARK    3  A    between atoms: C2_2  and  C14_21
REMARK    4  A    between atoms: N1_3  and  C3_4
REMARK    5  A    between atoms: C3_4  and  C4_5
REMARK    6  A    between atoms: C3_4  and  C13_18
REMARK    7  A    between atoms: C4_5  and  C5_6
REMARK    8  A    between atoms: C5_6  and  C6_8
REMARK    9  A    between atoms: C11_13  and  C12_14
REMARK   10  A    between atoms: C13_18  and  O3_20
REMARK                            x       y       z     vdW  Elec       q    Type
REMARK                         _______ _______ _______ _____ _____    ______ ____
ROOT
ATOM      1  C3  UNL     1       0.021   0.611  -0.275  0.00  0.00    +0.000 C 
ENDROOT
BRANCH   1   2
ATOM      2  N1  UNL     1       1.364   0.408   0.133  0.00  0.00    +0.000 NA
ATOM      3  H5  UNL     1       1.506   0.295   1.133  0.00  0.00    +0.000 HD
BRANCH   2   5
ATOM      4  C1  UNL     1       2.643   0.641  -1.994  0.00  0.00    +0.000 C 
ATOM      5  C2  UNL     1       2.306  -0.132  -0.753  0.00  0.00    +0.000 C 
BRANCH   5   6
ATOM      6  C14 UNL     1       3.584  -0.278   0.003  0.00  0.00    +0.000 A 
ATOM      7  C15 UNL     1       4.030   0.730   0.827  0.00  0.00    +0.000 A 
ATOM      8  C16 UNL     1       5.223   0.589   1.527  0.00  0.00    +0.000 A 
ATOM      9  C17 UNL     1       5.946  -0.582   1.377  0.00  0.00    +0.000 A 
ATOM     10  C18 UNL     1       5.495  -1.584   0.554  0.00  0.00    +0.000 A 
ATOM     11  C19 UNL     1       4.302  -1.438  -0.144  0.00  0.00    +0.000 A 
ENDBRANCH   5   6
ENDBRANCH   2   5
ENDBRANCH   1   2
BRANCH   1  12
ATOM     12  C13 UNL     1      -0.286   1.789  -1.055  0.00  0.00    +0.000 C 
ATOM     13  O2  UNL     1       0.624   2.624  -1.349  0.00  0.00    +0.000 OA
BRANCH  12  14
ATOM     14  O3  UNL     1      -1.565   2.064  -1.509  0.00  0.00    +0.000 OA
ATOM     15  H13 UNL     1      -1.776   3.003  -1.822  0.00  0.00    +0.000 HD
ENDBRANCH  12  14
ENDBRANCH   1  12
BRANCH   1  16
ATOM     16  C4  UNL     1      -0.667  -0.621  -0.735  0.00  0.00    +0.000 C 
BRANCH  16  17
ATOM     17  C5  UNL     1      -2.065  -0.400  -1.158  0.00  0.00    +0.000 C 
ATOM     18  O1  UNL     1      -2.340  -0.171  -2.366  0.00  0.00    +0.000 OA
BRANCH  17  19
ATOM     19  C6  UNL     1      -3.174  -0.445  -0.177  0.00  0.00    +0.000 A 
ATOM     20  C7  UNL     1      -2.902  -0.724   1.150  0.00  0.00    +0.000 A 
ATOM     21  C8  UNL     1      -3.915  -0.773   2.094  0.00  0.00    +0.000 A 
ATOM     22  C9  UNL     1      -5.204  -0.539   1.688  0.00  0.00    +0.000 A 
ATOM     23  C10 UNL     1      -5.496  -0.262   0.383  0.00  0.00    +0.000 A 
ATOM     24  C11 UNL     1      -4.472  -0.216  -0.551  0.00  0.00    +0.000 A 
BRANCH  24  25
ATOM     25  C12 UNL     1      -4.873   0.086  -1.959  0.00  0.00    +0.000 C 
ATOM     26  F1  UNL     1      -6.270   0.259  -1.978  0.00  0.00    +0.000 F 
ATOM     27  F2  UNL     1      -4.636  -0.971  -2.798  0.00  0.00    +0.000 F 
ATOM     28  F3  UNL     1      -4.353   1.277  -2.372  0.00  0.00    +0.000 F 
ENDBRANCH  24  25
ENDBRANCH  17  19
ENDBRANCH  16  17
ENDBRANCH   1  16
TORSDOF 9
