REMARK  Name = ./3D_structures\o69_MMV099714_3D.pdb
REMARK  7 active torsions:
REMARK  status: ('A' for Active; 'I' for Inactive)
REMARK    1  A    between atoms: N1_1  and  C1_2
REMARK    2  A    between atoms: C2_3  and  C3_4
REMARK    3  A    between atoms: N2_6  and  C4_7
REMARK    4  A    between atoms: C4_7  and  C5_8
REMARK    5  A    between atoms: N5_23  and  C17_24
REMARK    6  A    between atoms: C17_24  and  C18_25
REMARK    7  A    between atoms: C18_25  and  N6_26
REMARK                            x       y       z     vdW  Elec       q    Type
REMARK                         _______ _______ _______ _____ _____    ______ ____
ROOT
ATOM      1  C1  UNL     1       0.807   0.825  -1.694  0.00  0.00    +0.000 A 
ATOM      2  C2  UNL     1       1.791   0.035  -1.080  0.00  0.00    +0.000 A 
ATOM      3  C9  UNL     1       1.108  -1.085  -0.631  0.00  0.00    +0.000 A 
ATOM      4  N3  UNL     1       1.539  -2.175   0.029  0.00  0.00    +0.000 NA
ATOM      5  C10 UNL     1       0.715  -3.168   0.384  0.00  0.00    +0.000 A 
ATOM      6  C11 UNL     1       1.122  -4.300   1.062  0.00  0.00    +0.000 A 
ATOM      7  C12 UNL     1       0.266  -5.313   1.421  0.00  0.00    +0.000 A 
ATOM      8  C13 UNL     1      -1.066  -5.184   1.083  0.00  0.00    +0.000 A 
ATOM      9  C14 UNL     1      -1.498  -4.065   0.407  0.00  0.00    +0.000 A 
ATOM     10  C15 UNL     1      -0.618  -3.046   0.050  0.00  0.00    +0.000 A 
ATOM     11  N4  UNL     1      -1.057  -1.958  -0.611  0.00  0.00    +0.000 NA
ATOM     12  C16 UNL     1      -0.237  -0.962  -0.968  0.00  0.00    +0.000 A 
ATOM     13  N5  UNL     1      -0.388   0.208  -1.613  0.00  0.00    +0.000 N 
ENDROOT
BRANCH   2  14
ATOM     14  C3  UNL     1       3.210   0.352  -0.964  0.00  0.00    +0.000 C 
ATOM     15  O1  UNL     1       3.610   1.446  -1.464  0.00  0.00    +0.000 OA
ATOM     16  N2  UNL     1       4.093  -0.545  -0.312  0.00  0.00    +0.000 N 
ATOM     17  H3  UNL     1       3.780  -1.437   0.100  0.00  0.00    +0.000 HD
BRANCH  16  18
ATOM     18  C4  UNL     1       5.507  -0.176  -0.227  0.00  0.00    +0.000 C 
BRANCH  18  19
ATOM     19  C5  UNL     1       5.674   1.088   0.504  0.00  0.00    +0.000 A 
ATOM     20  O2  UNL     1       6.823   1.716   0.634  0.00  0.00    +0.000 OA
ATOM     21  C6  UNL     1       6.685   2.822   1.335  0.00  0.00    +0.000 A 
ATOM     22  C7  UNL     1       5.371   2.952   1.703  0.00  0.00    +0.000 A 
ATOM     23  C8  UNL     1       4.724   1.862   1.183  0.00  0.00    +0.000 A 
ENDBRANCH  18  19
ENDBRANCH  16  18
ENDBRANCH   2  14
BRANCH   1  24
ATOM     24  N1  UNL     1       1.079   2.077  -2.293  0.00  0.00    +0.000 N 
ATOM     25  H1  UNL     1       1.373   2.116  -3.281  0.00  0.00    +0.000 HD
ATOM     26  H2  UNL     1       0.989   2.955  -1.759  0.00  0.00    +0.000 HD
ENDBRANCH   1  24
BRANCH  13  27
ATOM     27  C17 UNL     1      -1.606   0.748  -2.149  0.00  0.00    +0.000 C 
BRANCH  27  28
ATOM     28  C18 UNL     1      -2.391   1.593  -1.203  0.00  0.00    +0.000 C 
BRANCH  28  29
ATOM     29  N6  UNL     1      -2.816   0.919  -0.011  0.00  0.00    +0.000 NA
ATOM     30  C19 UNL     1      -3.791  -0.097  -0.193  0.00  0.00    +0.000 C 
ATOM     31  C20 UNL     1      -5.213   0.351  -0.008  0.00  0.00    +0.000 C 
ATOM     32  C21 UNL     1      -5.396   1.264   1.171  0.00  0.00    +0.000 C 
ATOM     33  C22 UNL     1      -4.390   2.403   0.993  0.00  0.00    +0.000 C 
ATOM     34  C23 UNL     1      -3.020   1.766   1.118  0.00  0.00    +0.000 C 
ENDBRANCH  28  29
ENDBRANCH  27  28
ENDBRANCH  13  27
TORSDOF 7
