REMARK  Name = ./3D_structures\o6_MMV002612_3D.pdb
REMARK  1 active torsions:
REMARK  status: ('A' for Active; 'I' for Inactive)
REMARK    1  A    between atoms: C4_5  and  N1_6
REMARK                            x       y       z     vdW  Elec       q    Type
REMARK                         _______ _______ _______ _____ _____    ______ ____
ROOT
ATOM      1  N1  UNL     1       0.034  -0.392   0.144  0.00  0.00    +0.000 N 
ATOM      2  C5  UNL     1      -1.007  -1.345  -0.006  0.00  0.00    +0.000 C 
ATOM      3  O2  UNL     1      -0.901  -2.610  -0.093  0.00  0.00    +0.000 OA
ATOM      4  C6  UNL     1      -2.303  -0.673  -0.054  0.00  0.00    +0.000 A 
ATOM      5  C7  UNL     1      -3.602  -1.132  -0.187  0.00  0.00    +0.000 A 
ATOM      6  C8  UNL     1      -4.624  -0.212  -0.195  0.00  0.00    +0.000 A 
ATOM      7  C9  UNL     1      -4.400   1.155  -0.076  0.00  0.00    +0.000 A 
ATOM      8  C10 UNL     1      -3.090   1.554   0.053  0.00  0.00    +0.000 A 
ATOM      9  C11 UNL     1      -2.023   0.681   0.069  0.00  0.00    +0.000 A 
ATOM     10  C12 UNL     1      -0.580   0.869   0.192  0.00  0.00    +0.000 C 
ATOM     11  O3  UNL     1       0.021   1.965   0.320  0.00  0.00    +0.000 OA
ENDROOT
BRANCH   1  16
ATOM     12  O1  UNL     1       5.083   1.273   0.358  0.00  0.00    +0.000 OA
ATOM     13  C1  UNL     1       4.069   0.535   0.391  0.00  0.00    +0.000 C 
ATOM     14  C2  UNL     1       3.645  -0.317  -0.752  0.00  0.00    +0.000 C 
ATOM     15  C3  UNL     1       2.149  -0.074  -0.955  0.00  0.00    +0.000 C 
ATOM     16  C4  UNL     1       1.452  -0.711   0.228  0.00  0.00    +0.000 C 
ATOM     17  C13 UNL     1       2.033  -0.263   1.516  0.00  0.00    +0.000 C 
ATOM     18  O4  UNL     1       1.420  -0.554   2.572  0.00  0.00    +0.000 OA
ATOM     19  N2  UNL     1       3.249   0.474   1.561  0.00  0.00    +0.000 N 
ATOM     20  H10 UNL     1       3.534   0.962   2.440  0.00  0.00    +0.000 HD
ENDBRANCH   1  16
TORSDOF 1
