REMARK  Name = ./3D_structures\o70_MMV1578891_3D.pdb
REMARK  3 active torsions:
REMARK  status: ('A' for Active; 'I' for Inactive)
REMARK    1  A    between atoms: C1_2  and  C2_3
REMARK    2  A    between atoms: C2_3  and  N1_4
REMARK    3  A    between atoms: N3_15  and  C11_16
REMARK                            x       y       z     vdW  Elec       q    Type
REMARK                         _______ _______ _______ _____ _____    ______ ____
ROOT
ATOM      1  C2  UNL     1       0.094   1.484  -0.700  0.00  0.00    +0.000 C 
ENDROOT
BRANCH   1   2
ATOM      2  N1  UNL     1       1.379   0.845  -0.714  0.00  0.00    +0.000 N 
ATOM      3  C3  UNL     1       1.852   0.309  -1.845  0.00  0.00    +0.000 A 
ATOM      4  N2  UNL     1       3.050  -0.293  -1.879  0.00  0.00    +0.000 NA
ATOM      5  C4  UNL     1       3.783  -0.356  -0.758  0.00  0.00    +0.000 A 
ATOM      6  C5  UNL     1       5.039  -0.969  -0.729  0.00  0.00    +0.000 A 
ATOM      7  C6  UNL     1       5.791  -1.034   0.419  0.00  0.00    +0.000 A 
ATOM      8  C7  UNL     1       5.313  -0.481   1.604  0.00  0.00    +0.000 A 
ATOM      9  C8  UNL     1       4.080   0.122   1.583  0.00  0.00    +0.000 A 
ATOM     10  C9  UNL     1       3.322   0.188   0.425  0.00  0.00    +0.000 A 
ATOM     11  C10 UNL     1       2.085   0.799   0.421  0.00  0.00    +0.000 A 
ATOM     12  O2  UNL     1       1.641   1.308   1.507  0.00  0.00    +0.000 OA
ENDBRANCH   1   2
BRANCH   1  14
ATOM     13  O1  UNL     1      -0.729  -0.651  -0.156  0.00  0.00    +0.000 OA
ATOM     14  C1  UNL     1      -1.004   0.531  -0.373  0.00  0.00    +0.000 C 
ATOM     15  N3  UNL     1      -2.338   0.992  -0.315  0.00  0.00    +0.000 N 
ATOM     16  H8  UNL     1      -2.477   2.031  -0.517  0.00  0.00    +0.000 HD
BRANCH  15  17
ATOM     17  C11 UNL     1      -3.479   0.219  -0.021  0.00  0.00    +0.000 A 
ATOM     18  C12 UNL     1      -3.516  -1.118   0.264  0.00  0.00    +0.000 A 
ATOM     19  C13 UNL     1      -4.692  -1.816   0.546  0.00  0.00    +0.000 A 
ATOM     20  C14 UNL     1      -5.890  -1.148   0.544  0.00  0.00    +0.000 A 
ATOM     21  C15 UNL     1      -5.902   0.201   0.262  0.00  0.00    +0.000 A 
ATOM     22  C16 UNL     1      -4.725   0.855  -0.011  0.00  0.00    +0.000 A 
ENDBRANCH  15  17
ENDBRANCH   1  14
TORSDOF 3
