REMARK  Name = ./3D_structures\o71_MMV124656_3D.pdb
REMARK  7 active torsions:
REMARK  status: ('A' for Active; 'I' for Inactive)
REMARK    1  A    between atoms: C1_1  and  C2_2
REMARK    2  A    between atoms: C2_2  and  O1_3
REMARK    3  A    between atoms: O1_3  and  C3_4
REMARK    4  A    between atoms: C6_7  and  C9_10
REMARK    5  A    between atoms: N1_12  and  C10_13
REMARK    6  A    between atoms: C10_13  and  C11_14
REMARK    7  A    between atoms: C11_14  and  C12_15
REMARK                            x       y       z     vdW  Elec       q    Type
REMARK                         _______ _______ _______ _____ _____    ______ ____
ROOT
ATOM      1  C9  UNL     1      -0.105  -1.376  -0.957  0.00  0.00    +0.000 C 
ATOM      2  O2  UNL     1      -0.091  -1.977  -2.078  0.00  0.00    +0.000 OA
ATOM      3  N1  UNL     1      -1.328  -1.362  -0.234  0.00  0.00    +0.000 N 
ATOM      4  H10 UNL     1      -1.351  -0.878   0.677  0.00  0.00    +0.000 HD
ENDROOT
BRANCH   1   8
ATOM      5  C3  UNL     1       3.496   0.427   0.327  0.00  0.00    +0.000 A 
ATOM      6  C4  UNL     1       2.378   0.515   1.127  0.00  0.00    +0.000 A 
ATOM      7  C5  UNL     1       1.199  -0.075   0.707  0.00  0.00    +0.000 A 
ATOM      8  C6  UNL     1       1.111  -0.741  -0.476  0.00  0.00    +0.000 A 
ATOM      9  C7  UNL     1       2.248  -0.809  -1.248  0.00  0.00    +0.000 A 
ATOM     10  C8  UNL     1       3.444  -0.239  -0.876  0.00  0.00    +0.000 A 
BRANCH   5  11
ATOM     11  O1  UNL     1       4.667   1.022   0.761  0.00  0.00    +0.000 OA
BRANCH  11  13
ATOM     12  C1  UNL     1       6.930   1.676   0.682  0.00  0.00    +0.000 C 
ATOM     13  C2  UNL     1       5.817   0.934  -0.058  0.00  0.00    +0.000 C 
ENDBRANCH  11  13
ENDBRANCH   5  11
ENDBRANCH   1   8
BRANCH   3  14
ATOM     14  C10 UNL     1      -2.474  -2.026  -0.809  0.00  0.00    +0.000 C 
BRANCH  14  15
ATOM     15  C11 UNL     1      -3.715  -1.965   0.008  0.00  0.00    +0.000 C 
BRANCH  15  16
ATOM     16  C12 UNL     1      -4.172  -0.580   0.254  0.00  0.00    +0.000 A 
ATOM     17  C13 UNL     1      -5.015   0.005  -0.663  0.00  0.00    +0.000 A 
ATOM     18  C14 UNL     1      -5.489   1.310  -0.486  0.00  0.00    +0.000 A 
ATOM     19  C15 UNL     1      -5.098   2.007   0.624  0.00  0.00    +0.000 A 
ATOM     20  C16 UNL     1      -4.249   1.437   1.561  0.00  0.00    +0.000 A 
ATOM     21  C17 UNL     1      -3.796   0.146   1.363  0.00  0.00    +0.000 A 
ENDBRANCH  15  16
ENDBRANCH  14  15
ENDBRANCH   3  14
TORSDOF 6
