REMARK  Name = ./3D_structures\o72_MMV975972_3D.pdb
REMARK  2 active torsions:
REMARK  status: ('A' for Active; 'I' for Inactive)
REMARK    1  A    between atoms: N1_1  and  C1_2
REMARK    2  A    between atoms: C3_4  and  C5_9
REMARK                            x       y       z     vdW  Elec       q    Type
REMARK                         _______ _______ _______ _____ _____    ______ ____
ROOT
ATOM      1  C1  UNL     1       3.499  -0.179   0.253  0.00  0.00    +0.000 A 
ATOM      2  C2  UNL     1       2.168  -0.394   0.149  0.00  0.00    +0.000 A 
ATOM      3  C3  UNL     1       1.280   0.657   0.139  0.00  0.00    +0.000 A 
ATOM      4  N2  UNL     1       1.796   1.895   0.237  0.00  0.00    +0.000 NA
ATOM      5  N3  UNL     1       3.102   2.112   0.339  0.00  0.00    +0.000 N 
ATOM      6  C4  UNL     1       3.991   1.101   0.351  0.00  0.00    +0.000 A 
ATOM      7  O1  UNL     1       5.242   1.338   0.450  0.00  0.00    +0.000 OA
ATOM      8  H4  UNL     1       3.414   3.104   0.410  0.00  0.00    +0.000 HD
ENDROOT
BRANCH   3   9
ATOM      9  C5  UNL     1      -0.163   0.432   0.027  0.00  0.00    +0.000 A 
ATOM     10  N4  UNL     1      -1.158   1.322   0.002  0.00  0.00    +0.000 NA
ATOM     11  C6  UNL     1      -2.346   0.704  -0.112  0.00  0.00    +0.000 A 
ATOM     12  C7  UNL     1      -3.663   1.153  -0.182  0.00  0.00    +0.000 A 
ATOM     13  C8  UNL     1      -4.663   0.234  -0.297  0.00  0.00    +0.000 A 
ATOM     14  C9  UNL     1      -4.373  -1.113  -0.344  0.00  0.00    +0.000 A 
ATOM     15  C10 UNL     1      -3.075  -1.573  -0.276  0.00  0.00    +0.000 A 
ATOM     16  C11 UNL     1      -2.079  -0.645  -0.160  0.00  0.00    +0.000 A 
ATOM     17  N5  UNL     1      -0.741  -0.761  -0.072  0.00  0.00    +0.000 N 
ATOM     18  H9  UNL     1      -0.251  -1.688  -0.084  0.00  0.00    +0.000 HD
ENDBRANCH   3   9
BRANCH   1  19
ATOM     19  N1  UNL     1       4.385  -1.286   0.260  0.00  0.00    +0.000 N 
ATOM     20  H1  UNL     1       4.326  -2.051   0.961  0.00  0.00    +0.000 HD
ATOM     21  H2  UNL     1       5.119  -1.315  -0.475  0.00  0.00    +0.000 HD
ENDBRANCH   1  19
TORSDOF 2
