REMARK  Name = ./3D_structures\o73_MMV1578884_3D.pdb
REMARK  6 active torsions:
REMARK  status: ('A' for Active; 'I' for Inactive)
REMARK    1  A    between atoms: C7_10  and  N1_11
REMARK    2  A    between atoms: N1_11  and  C8_12
REMARK    3  A    between atoms: C8_12  and  C9_13
REMARK    4  A    between atoms: C9_13  and  C10_14
REMARK    5  A    between atoms: C10_14  and  N2_15
REMARK    6  A    between atoms: N2_15  and  C11_16
REMARK                            x       y       z     vdW  Elec       q    Type
REMARK                         _______ _______ _______ _____ _____    ______ ____
ROOT
ATOM      1  C8  UNL     1      -0.266  -1.098  -0.477  0.00  0.00    +0.000 C 
ENDROOT
BRANCH   1   2
ATOM      2  N1  UNL     1      -1.382  -0.226  -0.583  0.00  0.00    +0.000 NA
ATOM      3  H7  UNL     1      -1.625  -0.101  -1.577  0.00  0.00    +0.000 HD
BRANCH   2  13
ATOM      4 BR1  UNL     1      -3.147   4.600  -0.642  0.00  0.00    +0.000 Br
ATOM      5  C1  UNL     1      -3.891   2.880  -0.250  0.00  0.00    +0.000 A 
ATOM      6  C2  UNL     1      -5.235   2.699  -0.022  0.00  0.00    +0.000 A 
ATOM      7  C3  UNL     1      -5.684   1.420   0.255  0.00  0.00    +0.000 A 
ATOM      8 BR2  UNL     1      -7.554   1.149   0.578  0.00  0.00    +0.000 Br
ATOM      9  C4  UNL     1      -4.856   0.343   0.309  0.00  0.00    +0.000 A 
ATOM     10  O1  UNL     1      -5.239  -0.960   0.580  0.00  0.00    +0.000 OA
ATOM     11  C5  UNL     1      -4.633  -2.028  -0.129  0.00  0.00    +0.000 C 
ATOM     12  C6  UNL     1      -3.168  -1.901  -0.323  0.00  0.00    +0.000 C 
ATOM     13  C7  UNL     1      -2.560  -0.603   0.130  0.00  0.00    +0.000 C 
ATOM     14  C18 UNL     1      -3.508   0.541   0.078  0.00  0.00    +0.000 A 
ATOM     15  C19 UNL     1      -3.044   1.802  -0.198  0.00  0.00    +0.000 A 
ENDBRANCH   2  13
ENDBRANCH   1   2
BRANCH   1  16
ATOM     16  C9  UNL     1       0.358  -1.140   0.904  0.00  0.00    +0.000 C 
BRANCH  16  17
ATOM     17  C10 UNL     1       0.841   0.234   1.303  0.00  0.00    +0.000 C 
BRANCH  17  18
ATOM     18  N2  UNL     1       1.835   0.719   0.398  0.00  0.00    +0.000 N 
ATOM     19  H14 UNL     1       1.540   1.413  -0.316  0.00  0.00    +0.000 HD
BRANCH  18  20
ATOM     20  C11 UNL     1       3.215   0.300   0.421  0.00  0.00    +0.000 A 
ATOM     21  C12 UNL     1       3.554  -0.624   1.398  0.00  0.00    +0.000 A 
ATOM     22  C13 UNL     1       4.883  -1.019   1.382  0.00  0.00    +0.000 A 
ATOM     23  O2  UNL     1       5.357  -1.852   2.200  0.00  0.00    +0.000 OA
ATOM     24  C14 UNL     1       5.716  -0.495   0.454  0.00  0.00    +0.000 A 
ATOM     25  S1  UNL     1       7.481  -0.791   0.168  0.00  0.00    +0.000 S 
ATOM     26  C15 UNL     1       7.600   0.385  -1.275  0.00  0.00    +0.000 A 
ATOM     27  C16 UNL     1       6.346   0.841  -1.363  0.00  0.00    +0.000 A 
ATOM     28  C17 UNL     1       5.400   0.407  -0.505  0.00  0.00    +0.000 A 
ATOM     29  N3  UNL     1       4.070   0.795  -0.481  0.00  0.00    +0.000 N 
ATOM     30  H18 UNL     1       3.679   1.480  -1.152  0.00  0.00    +0.000 HD
ENDBRANCH  18  20
ENDBRANCH  17  18
ENDBRANCH  16  17
ENDBRANCH   1  16
TORSDOF 6
