REMARK  Name = ./3D_structures\o74_MMV108465_3D.pdb
REMARK  4 active torsions:
REMARK  status: ('A' for Active; 'I' for Inactive)
REMARK    1  A    between atoms: C1_1  and  C2_2
REMARK    2  A    between atoms: C2_2  and  C3_3
REMARK    3  A    between atoms: C2_2  and  N1_4
REMARK    4  A    between atoms: N5_13  and  C9_14
REMARK                            x       y       z     vdW  Elec       q    Type
REMARK                         _______ _______ _______ _____ _____    ______ ____
ROOT
ATOM      1  N1  UNL     1      -2.806  -0.699   0.036  0.00  0.00    +0.000 N 
ATOM      2  C4  UNL     1      -1.613   0.034   0.242  0.00  0.00    +0.000 C 
ATOM      3  N2  UNL     1      -1.624   1.275   0.752  0.00  0.00    +0.000 NA
ATOM      4  C5  UNL     1      -0.474   1.977   0.948  0.00  0.00    +0.000 C 
ATOM      5  N3  UNL     1       0.709   1.403   0.618  0.00  0.00    +0.000 NA
ATOM      6  C6  UNL     1       0.792   0.169   0.104  0.00  0.00    +0.000 A 
ATOM      7  C7  UNL     1      -0.401  -0.522  -0.084  0.00  0.00    +0.000 A 
ATOM      8  C8  UNL     1      -0.008  -1.741  -0.616  0.00  0.00    +0.000 A 
ATOM      9  N4  UNL     1       1.336  -1.726  -0.718  0.00  0.00    +0.000 NA
ATOM     10  N5  UNL     1       1.822  -0.593  -0.291  0.00  0.00    +0.000 N 
ATOM     11  H8  UNL     1      -2.764  -1.654  -0.359  0.00  0.00    +0.000 HD
ENDROOT
BRANCH  10  12
ATOM     12  C9  UNL     1       3.217  -0.279  -0.274  0.00  0.00    +0.000 A 
ATOM     13  C10 UNL     1       3.752   0.222   0.894  0.00  0.00    +0.000 A 
ATOM     14  C11 UNL     1       5.104   0.554   0.992  0.00  0.00    +0.000 A 
ATOM     15  C12 UNL     1       5.937   0.382  -0.094  0.00  0.00    +0.000 A 
ATOM     16 CL1  UNL     1       7.641   0.782  -0.025  0.00  0.00    +0.000 Cl
ATOM     17  C13 UNL     1       5.374  -0.124  -1.260  0.00  0.00    +0.000 A 
ATOM     18  C14 UNL     1       4.041  -0.453  -1.363  0.00  0.00    +0.000 A 
ENDBRANCH  10  12
BRANCH   1  20
ATOM     19  C1  UNL     1      -4.324   1.142  -0.406  0.00  0.00    +0.000 C 
ATOM     20  C2  UNL     1      -4.092  -0.116   0.379  0.00  0.00    +0.000 C 
ATOM     21  C3  UNL     1      -5.186  -1.129   0.194  0.00  0.00    +0.000 C 
ENDBRANCH   1  20
TORSDOF 2
