REMARK  Name = ./3D_structures\o75_MMV1480967_3D.pdb
REMARK  5 active torsions:
REMARK  status: ('A' for Active; 'I' for Inactive)
REMARK    1  A    between atoms: C1_1  and  O1_2
REMARK    2  A    between atoms: O1_2  and  C2_3
REMARK    3  A    between atoms: C8_12  and  C14_19
REMARK    4  A    between atoms: N1_14  and  C10_15
REMARK    5  A    between atoms: C14_19  and  O4_21
REMARK                            x       y       z     vdW  Elec       q    Type
REMARK                         _______ _______ _______ _____ _____    ______ ____
ROOT
ATOM      1  C2  UNL     1      -1.684  -0.788   0.247  0.00  0.00    +0.000 A 
ATOM      2  C3  UNL     1      -2.200  -2.074   0.265  0.00  0.00    +0.000 A 
ATOM      3  F1  UNL     1      -3.553  -2.206   0.401  0.00  0.00    +0.000 F 
ATOM      4  C4  UNL     1      -1.424  -3.201   0.153  0.00  0.00    +0.000 A 
ATOM      5  F2  UNL     1      -1.974  -4.448   0.175  0.00  0.00    +0.000 F 
ATOM      6  C5  UNL     1      -0.077  -3.023   0.020  0.00  0.00    +0.000 A 
ATOM      7  C6  UNL     1       0.452  -1.755   0.002  0.00  0.00    +0.000 A 
ATOM      8  C7  UNL     1       1.818  -1.681  -0.130  0.00  0.00    +0.000 A 
ATOM      9  O2  UNL     1       2.532  -2.738  -0.235  0.00  0.00    +0.000 OA
ATOM     10  C8  UNL     1       2.407  -0.454  -0.146  0.00  0.00    +0.000 A 
ATOM     11  C9  UNL     1       1.588   0.678  -0.027  0.00  0.00    +0.000 A 
ATOM     12  N1  UNL     1       0.265   0.616   0.100  0.00  0.00    +0.000 N 
ATOM     13  C13 UNL     1      -0.328  -0.596   0.115  0.00  0.00    +0.000 A 
ENDROOT
BRANCH  12  14
ATOM     14  C10 UNL     1      -0.545   1.803   0.255  0.00  0.00    +0.000 C 
ATOM     15  C11 UNL     1      -0.606   2.735  -0.864  0.00  0.00    +0.000 C 
ATOM     16  C12 UNL     1       0.156   3.162   0.308  0.00  0.00    +0.000 C 
ENDBRANCH  12  14
BRANCH   1  18
ATOM     17  C1  UNL     1      -3.238   0.838  -0.744  0.00  0.00    +0.000 C 
ATOM     18  O1  UNL     1      -2.561   0.271   0.364  0.00  0.00    +0.000 OA
ENDBRANCH   1  18
BRANCH  10  19
ATOM     19  C14 UNL     1       3.838  -0.327  -0.283  0.00  0.00    +0.000 C 
ATOM     20  O3  UNL     1       4.375   0.794  -0.297  0.00  0.00    +0.000 OA
BRANCH  19  21
ATOM     21  O4  UNL     1       4.621  -1.448  -0.397  0.00  0.00    +0.000 OA
ATOM     22  H11 UNL     1       5.611  -1.439  -0.603  0.00  0.00    +0.000 HD
ENDBRANCH  19  21
ENDBRANCH  10  19
TORSDOF 4
