REMARK  Name = ./3D_structures\o76_MMV1578570_3D.pdb
REMARK  9 active torsions:
REMARK  status: ('A' for Active; 'I' for Inactive)
REMARK    1  A    between atoms: C1_1  and  C2_2
REMARK    2  A    between atoms: C2_2  and  C3_3
REMARK    3  A    between atoms: C3_3  and  C4_4
REMARK    4  A    between atoms: C3_3  and  N1_5
REMARK    5  A    between atoms: N1_5  and  C5_6
REMARK    6  A    between atoms: C5_6  and  C6_7
REMARK    7  A    between atoms: C6_7  and  O1_8
REMARK    8  A    between atoms: C6_7  and  C7_9
REMARK    9  A    between atoms: C7_9  and  N2_10
REMARK                            x       y       z     vdW  Elec       q    Type
REMARK                         _______ _______ _______ _____ _____    ______ ____
ROOT
ATOM      1  N2  UNL     1      -1.687  -0.235   0.542  0.00  0.00    +0.000 N 
ATOM      2  C8  UNL     1      -2.548  -1.261   0.548  0.00  0.00    +0.000 A 
ATOM      3  C9  UNL     1      -2.378  -2.634   0.639  0.00  0.00    +0.000 A 
ATOM      4  C10 UNL     1      -3.476  -3.474   0.617  0.00  0.00    +0.000 A 
ATOM      5  C11 UNL     1      -4.746  -2.955   0.503  0.00  0.00    +0.000 A 
ATOM      6 CL1  UNL     1      -6.091  -4.071   0.478  0.00  0.00    +0.000 Cl
ATOM      7  C12 UNL     1      -4.936  -1.588   0.411  0.00  0.00    +0.000 A 
ATOM      8  C13 UNL     1      -3.824  -0.773   0.435  0.00  0.00    +0.000 A 
ATOM      9  C14 UNL     1      -3.740   0.620   0.356  0.00  0.00    +0.000 A 
ATOM     10  C15 UNL     1      -4.663   1.625   0.233  0.00  0.00    +0.000 A 
ATOM     11  C16 UNL     1      -4.239   2.920   0.180  0.00  0.00    +0.000 A 
ATOM     12 CL2  UNL     1      -5.393   4.223   0.019  0.00  0.00    +0.000 Cl
ATOM     13  C17 UNL     1      -2.896   3.252   0.249  0.00  0.00    +0.000 A 
ATOM     14  C18 UNL     1      -1.991   2.205   0.374  0.00  0.00    +0.000 A 
ATOM     15  C19 UNL     1      -2.378   0.888   0.429  0.00  0.00    +0.000 A 
ENDROOT
BRANCH   1  16
ATOM     16  C7  UNL     1      -0.229  -0.302   0.622  0.00  0.00    +0.000 C 
BRANCH  16  17
ATOM     17  C6  UNL     1       0.400  -0.370  -0.712  0.00  0.00    +0.000 C 
BRANCH  17  18
ATOM     18  O1  UNL     1      -0.153  -1.316  -1.577  0.00  0.00    +0.000 OA
ATOM     19  H14 UNL     1       0.204  -2.199  -1.292  0.00  0.00    +0.000 HD
ENDBRANCH  17  18
BRANCH  17  20
ATOM     20  C5  UNL     1       1.894  -0.454  -0.655  0.00  0.00    +0.000 C 
BRANCH  20  21
ATOM     21  N1  UNL     1       2.397   0.526   0.258  0.00  0.00    +0.000 NA
ATOM     22  H10 UNL     1       2.044   0.371   1.244  0.00  0.00    +0.000 HD
BRANCH  21  23
ATOM     23  C3  UNL     1       3.852   0.605   0.285  0.00  0.00    +0.000 C 
ATOM     24  C4  UNL     1       4.468  -0.639   0.833  0.00  0.00    +0.000 C 
BRANCH  23  26
ATOM     25  C1  UNL     1       5.862   1.321  -0.979  0.00  0.00    +0.000 C 
ATOM     26  C2  UNL     1       4.392   1.039  -1.045  0.00  0.00    +0.000 C 
ENDBRANCH  23  26
ENDBRANCH  21  23
ENDBRANCH  20  21
ENDBRANCH  17  20
ENDBRANCH  16  17
ENDBRANCH   1  16
TORSDOF 7
