REMARK  Name = ./3D_structures\o77_MMV1578564_3D.pdb
REMARK  6 active torsions:
REMARK  status: ('A' for Active; 'I' for Inactive)
REMARK    1  A    between atoms: C1_1  and  C2_2
REMARK    2  A    between atoms: C2_2  and  C3_3
REMARK    3  A    between atoms: C5_5  and  O1_6
REMARK    4  A    between atoms: C6_7  and  O2_8
REMARK    5  A    between atoms: O2_8  and  C7_9
REMARK    6  A    between atoms: C10_12  and  C13_16
REMARK                            x       y       z     vdW  Elec       q    Type
REMARK                         _______ _______ _______ _____ _____    ______ ____
ROOT
ATOM      1  O2  UNL     1       0.365   0.947  -1.258  0.00  0.00    +0.000 OA
ENDROOT
BRANCH   1   5
ATOM      2  C3  UNL     1      -3.280  -0.082   0.482  0.00  0.00    +0.000 A 
ATOM      3  C4  UNL     1      -3.221   0.868  -0.492  0.00  0.00    +0.000 A 
ATOM      4  C5  UNL     1      -1.994   1.192  -1.054  0.00  0.00    +0.000 A 
ATOM      5  C6  UNL     1      -0.827   0.588  -0.668  0.00  0.00    +0.000 A 
ATOM      6  C14 UNL     1      -0.903  -0.369   0.316  0.00  0.00    +0.000 A 
ATOM      7  C15 UNL     1      -2.132  -0.708   0.895  0.00  0.00    +0.000 A 
ATOM      8  F2  UNL     1      -2.167  -1.665   1.870  0.00  0.00    +0.000 F 
BRANCH   2  10
ATOM      9  C1  UNL     1      -5.733   0.258   0.609  0.00  0.00    +0.000 C 
ATOM     10  C2  UNL     1      -4.542  -0.501   1.148  0.00  0.00    +0.000 C 
ENDBRANCH   2  10
BRANCH   4  11
ATOM     11  O1  UNL     1      -1.971   2.161  -2.040  0.00  0.00    +0.000 OA
ATOM     12  H7  UNL     1      -1.105   2.433  -2.482  0.00  0.00    +0.000 HD
ENDBRANCH   4  11
ENDBRANCH   1   5
BRANCH   1  13
ATOM     13  C7  UNL     1       1.608   0.463  -0.978  0.00  0.00    +0.000 A 
ATOM     14  C8  UNL     1       2.381  -0.202  -1.931  0.00  0.00    +0.000 A 
ATOM     15  C9  UNL     1       3.630  -0.670  -1.596  0.00  0.00    +0.000 A 
ATOM     16  C10 UNL     1       4.174  -0.514  -0.339  0.00  0.00    +0.000 A 
ATOM     17  C11 UNL     1       3.413   0.142   0.604  0.00  0.00    +0.000 A 
ATOM     18  C12 UNL     1       2.140   0.626   0.282  0.00  0.00    +0.000 A 
ATOM     19  F1  UNL     1       1.447   1.271   1.263  0.00  0.00    +0.000 F 
BRANCH  16  20
ATOM     20  C13 UNL     1       5.499  -1.013   0.008  0.00  0.00    +0.000 C 
ATOM     21  O3  UNL     1       6.217  -1.615  -0.830  0.00  0.00    +0.000 OA
ATOM     22  N1  UNL     1       6.006  -0.824   1.315  0.00  0.00    +0.000 N 
ATOM     23  H11 UNL     1       6.210   0.140   1.631  0.00  0.00    +0.000 HD
ATOM     24  H12 UNL     1       6.183  -1.609   1.969  0.00  0.00    +0.000 HD
ENDBRANCH  16  20
ENDBRANCH   1  13
TORSDOF 5
