REMARK  Name = ./3D_structures\o78_MMV1782215_3D.pdb
REMARK  11 active torsions:
REMARK  status: ('A' for Active; 'I' for Inactive)
REMARK    1  A    between atoms: O1_1  and  P1_2
REMARK    2  A    between atoms: P1_2  and  O3_4
REMARK    3  A    between atoms: P1_2  and  C1_5
REMARK    4  A    between atoms: C1_5  and  C2_6
REMARK    5  A    between atoms: C1_5  and  S1_22
REMARK    6  A    between atoms: C2_6  and  C3_7
REMARK    7  A    between atoms: C3_7  and  C4_8
REMARK    8  A    between atoms: C4_8  and  C5_9
REMARK    9  A    between atoms: C9_13  and  O4_14
REMARK   10  A    between atoms: O4_14  and  C10_15
REMARK   11  A    between atoms: S1_22  and  O7_25
REMARK                            x       y       z     vdW  Elec       q    Type
REMARK                         _______ _______ _______ _____ _____    ______ ____
ROOT
ATOM      1  C3  UNL     1      -2.008  -0.688  -0.014  0.00  0.00    +0.000 C 
ENDROOT
BRANCH   1   2
ATOM      2  C2  UNL     1      -3.409  -0.846  -0.400  0.00  0.00    +0.000 C 
BRANCH   2   3
ATOM      3  C1  UNL     1      -4.490   0.023   0.034  0.00  0.00    +0.000 C 
BRANCH   3   4
ATOM      4  S1  UNL     1      -4.584   1.685  -0.452  0.00  0.00    +0.000 S 
ATOM      5  O5  UNL     1      -6.063   2.089  -0.445  0.00  0.00    +0.000 OA
ATOM      6  O6  UNL     1      -4.189   1.860  -1.920  0.00  0.00    +0.000 OA
BRANCH   4   7
ATOM      7  O7  UNL     1      -3.815   2.789   0.510  0.00  0.00    +0.000 OA
ATOM      8  H19 UNL     1      -3.398   3.541  -0.006  0.00  0.00    +0.000 HD
ENDBRANCH   4   7
ENDBRANCH   3   4
BRANCH   3   9
ATOM      9  P1  UNL     1      -6.013  -0.749  -0.813  0.00  0.00    +0.000 P 
ATOM     10  O2  UNL     1      -7.145   0.220  -0.735  0.00  0.00    +0.000 OA
BRANCH   9  11
ATOM     11  O1  UNL     1      -5.528  -0.927  -2.417  0.00  0.00    +0.000 OA
ATOM     12  H1  UNL     1      -5.144  -1.848  -2.520  0.00  0.00    +0.000 HD
ENDBRANCH   9  11
BRANCH   9  13
ATOM     13  O3  UNL     1      -6.312  -2.245  -0.153  0.00  0.00    +0.000 OA
ATOM     14  H2  UNL     1      -5.957  -3.011  -0.687  0.00  0.00    +0.000 HD
ENDBRANCH   9  13
ENDBRANCH   3   9
ENDBRANCH   2   3
ENDBRANCH   1   2
BRANCH   1  15
ATOM     15  C4  UNL     1      -1.326   0.564  -0.467  0.00  0.00    +0.000 C 
BRANCH  15  16
ATOM     16  C5  UNL     1       0.116   0.567  -0.023  0.00  0.00    +0.000 A 
ATOM     17  C6  UNL     1       0.446   1.110   1.200  0.00  0.00    +0.000 A 
ATOM     18  C7  UNL     1       1.760   1.127   1.635  0.00  0.00    +0.000 A 
ATOM     19  C8  UNL     1       2.784   0.608   0.872  0.00  0.00    +0.000 A 
ATOM     20  C9  UNL     1       2.446   0.067  -0.350  0.00  0.00    +0.000 A 
ATOM     21  C16 UNL     1       1.130   0.045  -0.797  0.00  0.00    +0.000 A 
BRANCH  20  22
ATOM     22  O4  UNL     1       3.433  -0.470  -1.163  0.00  0.00    +0.000 OA
BRANCH  22  23
ATOM     23  C10 UNL     1       4.764  -0.462  -0.742  0.00  0.00    +0.000 A 
ATOM     24  C11 UNL     1       5.617   0.571  -1.018  0.00  0.00    +0.000 A 
ATOM     25  C12 UNL     1       6.913   0.532  -0.583  0.00  0.00    +0.000 A 
ATOM     26  C13 UNL     1       7.406  -0.538   0.141  0.00  0.00    +0.000 A 
ATOM     27  C14 UNL     1       6.530  -1.568   0.407  0.00  0.00    +0.000 A 
ATOM     28  C15 UNL     1       5.222  -1.542  -0.024  0.00  0.00    +0.000 A 
ENDBRANCH  22  23
ENDBRANCH  20  22
ENDBRANCH  15  16
ENDBRANCH   1  15
TORSDOF 11
