REMARK  Name = ./3D_structures\o79_MMV1782403_3D.pdb
REMARK  7 active torsions:
REMARK  status: ('A' for Active; 'I' for Inactive)
REMARK    1  A    between atoms: C1_1  and  C2_2
REMARK    2  A    between atoms: C2_2  and  N1_3
REMARK    3  A    between atoms: N2_6  and  C4_7
REMARK    4  A    between atoms: C6_10  and  C16_22
REMARK    5  A    between atoms: C8_12  and  C11_16
REMARK    6  A    between atoms: C18_25  and  C19_26
REMARK    7  A    between atoms: C19_26  and  C20_27
REMARK                            x       y       z     vdW  Elec       q    Type
REMARK                         _______ _______ _______ _____ _____    ______ ____
ROOT
ATOM      1  C4  UNL     1       2.760   0.511   0.363  0.00  0.00    +0.000 A 
ATOM      2  C5  UNL     1       1.538  -0.056   0.193  0.00  0.00    +0.000 A 
ATOM      3  N3  UNL     1       0.601   0.917   0.161  0.00  0.00    +0.000 N 
ATOM      4  C6  UNL     1      -0.726   0.880   0.017  0.00  0.00    +0.000 A 
ATOM      5  C7  UNL     1      -1.426   2.079   0.027  0.00  0.00    +0.000 A 
ATOM      6  C8  UNL     1      -0.827   3.293   0.176  0.00  0.00    +0.000 A 
ATOM      7  C9  UNL     1       0.537   3.320   0.323  0.00  0.00    +0.000 A 
ATOM      8  C10 UNL     1       1.224   2.122   0.312  0.00  0.00    +0.000 A 
ATOM      9  N4  UNL     1       2.534   1.851   0.433  0.00  0.00    +0.000 NA
ENDROOT
BRANCH   1  13
ATOM     10  N1  UNL     1       5.609  -2.005   0.485  0.00  0.00    +0.000 N 
ATOM     11  C3  UNL     1       4.295  -1.445   0.385  0.00  0.00    +0.000 C 
ATOM     12  O1  UNL     1       3.324  -2.221   0.225  0.00  0.00    +0.000 OA
ATOM     13  N2  UNL     1       4.055  -0.056   0.460  0.00  0.00    +0.000 N 
ATOM     14  H6  UNL     1       6.402  -1.339   0.618  0.00  0.00    +0.000 HD
ATOM     15  H7  UNL     1       4.893   0.582   0.595  0.00  0.00    +0.000 HD
BRANCH  10  17
ATOM     16  C1  UNL     1       5.317  -3.920  -0.949  0.00  0.00    +0.000 C 
ATOM     17  C2  UNL     1       5.824  -3.437   0.404  0.00  0.00    +0.000 C 
ENDBRANCH  10  17
ENDBRANCH   1  13
BRANCH   6  18
ATOM     18  C11 UNL     1      -1.571   4.544   0.184  0.00  0.00    +0.000 A 
ATOM     19  C12 UNL     1      -2.711   4.667  -0.559  0.00  0.00    +0.000 A 
ATOM     20  C13 UNL     1      -3.376   5.874  -0.515  0.00  0.00    +0.000 A 
ATOM     21  C14 UNL     1      -2.937   6.938   0.239  0.00  0.00    +0.000 A 
ATOM     22  N5  UNL     1      -1.813   6.782   0.956  0.00  0.00    +0.000 NA
ATOM     23  C15 UNL     1      -1.154   5.612   0.923  0.00  0.00    +0.000 A 
ENDBRANCH   6  18
BRANCH   4  24
ATOM     24  C16 UNL     1      -1.484  -0.366  -0.150  0.00  0.00    +0.000 A 
ATOM     25  N6  UNL     1      -2.829  -0.312  -0.291  0.00  0.00    +0.000 NA
ATOM     26  C17 UNL     1      -3.610  -1.390  -0.449  0.00  0.00    +0.000 A 
ATOM     27  C18 UNL     1      -3.007  -2.628  -0.470  0.00  0.00    +0.000 A 
ATOM     28  C21 UNL     1      -1.637  -2.697  -0.328  0.00  0.00    +0.000 A 
ATOM     29  N7  UNL     1      -0.923  -1.581  -0.175  0.00  0.00    +0.000 NA
BRANCH  27  30
ATOM     30  C19 UNL     1      -3.833  -3.850  -0.643  0.00  0.00    +0.000 C 
ATOM     31  C20 UNL     1      -4.306  -4.429   0.651  0.00  0.00    +0.000 C 
ENDBRANCH  27  30
ENDBRANCH   4  24
TORSDOF 5
