REMARK  Name = ./3D_structures\o7_MMV1613562_3D.pdb
REMARK  7 active torsions:
REMARK  status: ('A' for Active; 'I' for Inactive)
REMARK    1  A    between atoms: C1_1  and  C2_2
REMARK    2  A    between atoms: C4_5  and  N4_17
REMARK    3  A    between atoms: N2_6  and  C5_7
REMARK    4  A    between atoms: C5_7  and  C6_8
REMARK    5  A    between atoms: C6_8  and  O1_9
REMARK    6  A    between atoms: C6_8  and  C7_10
REMARK    7  A    between atoms: C7_10  and  N3_11
REMARK                            x       y       z     vdW  Elec       q    Type
REMARK                         _______ _______ _______ _____ _____    ______ ____
ROOT
ATOM      1  C5  UNL     1      -1.728   0.382  -1.256  0.00  0.00    +0.000 C 
ENDROOT
BRANCH   1   7
ATOM      2  C1  UNL     1      -1.888   2.072   1.312  0.00  0.00    +0.000 C 
ATOM      3  C2  UNL     1      -2.473   0.734   1.070  0.00  0.00    +0.000 A 
ATOM      4  N1  UNL     1      -3.185   0.060   1.963  0.00  0.00    +0.000 NA
ATOM      5  C3  UNL     1      -3.612  -1.104   1.456  0.00  0.00    +0.000 A 
ATOM      6  C4  UNL     1      -3.109  -1.122   0.143  0.00  0.00    +0.000 A 
ATOM      7  N2  UNL     1      -2.416   0.006  -0.070  0.00  0.00    +0.000 N 
BRANCH   6   8
ATOM      8  N4  UNL     1      -3.355  -2.209  -0.720  0.00  0.00    +0.000 N 
ATOM      9  O3  UNL     1      -2.897  -2.194  -2.003  0.00  0.00    +0.000 OA
ATOM     10  O4  UNL     1      -3.976  -3.197  -0.321  0.00  0.00    +0.000 OA
ENDBRANCH   6   8
ENDBRANCH   1   7
BRANCH   1  11
ATOM     11  C6  UNL     1      -0.308  -0.130  -1.350  0.00  0.00    +0.000 C 
BRANCH  11  12
ATOM     12  O1  UNL     1       0.253   0.312  -2.527  0.00  0.00    +0.000 OA
ATOM     13  H8  UNL     1       0.047  -0.227  -3.324  0.00  0.00    +0.000 HD
ENDBRANCH  11  12
BRANCH  11  14
ATOM     14  C7  UNL     1       0.499   0.006  -0.122  0.00  0.00    +0.000 C 
BRANCH  14  15
ATOM     15  N3  UNL     1       1.725  -0.769  -0.110  0.00  0.00    +0.000 NA
ATOM     16  C8  UNL     1       2.316  -0.729   1.239  0.00  0.00    +0.000 C 
ATOM     17  C9  UNL     1       3.069   0.518   1.525  0.00  0.00    +0.000 C 
ATOM     18  O2  UNL     1       3.018   1.420   0.478  0.00  0.00    +0.000 OA
ATOM     19  C10 UNL     1       3.579   0.790  -0.632  0.00  0.00    +0.000 C 
ATOM     20  C11 UNL     1       2.707  -0.363  -1.083  0.00  0.00    +0.000 C 
ENDBRANCH  14  15
ENDBRANCH  11  14
ENDBRANCH   1  11
TORSDOF 6
