REMARK  Name = ./3D_structures\o80_MMV1782402_3D.pdb
REMARK  8 active torsions:
REMARK  status: ('A' for Active; 'I' for Inactive)
REMARK    1  A    between atoms: C1_1  and  C2_2
REMARK    2  A    between atoms: C4_4  and  C5_5
REMARK    3  A    between atoms: C6_8  and  C8_12
REMARK    4  A    between atoms: N5_14  and  S1_15
REMARK    5  A    between atoms: S1_15  and  C9_18
REMARK    6  A    between atoms: C10_19  and  C11_20
REMARK    7  A    between atoms: C15_24  and  O4_25
REMARK    8  A    between atoms: O4_25  and  C16_26
REMARK                            x       y       z     vdW  Elec       q    Type
REMARK                         _______ _______ _______ _____ _____    ______ ____
ROOT
ATOM      1  C8  UNL     1       0.327   0.422  -0.091  0.00  0.00    +0.000 C 
ATOM      2  O1  UNL     1       1.137   0.726   0.824  0.00  0.00    +0.000 OA
ATOM      3  N5  UNL     1       0.822   0.336  -1.409  0.00  0.00    +0.000 N 
ATOM      4  H8  UNL     1       0.128   0.076  -2.159  0.00  0.00    +0.000 HD
ENDROOT
BRANCH   1  12
ATOM      5  C1  UNL     1      -6.494  -0.755   2.454  0.00  0.00    +0.000 C 
ATOM      6  C2  UNL     1      -5.337  -0.604   1.527  0.00  0.00    +0.000 A 
ATOM      7  C3  UNL     1      -5.469  -0.769   0.172  0.00  0.00    +0.000 A 
ATOM      8  C4  UNL     1      -4.377  -0.621  -0.653  0.00  0.00    +0.000 A 
ATOM      9  C5  UNL     1      -4.586  -0.812  -2.116  0.00  0.00    +0.000 C 
ATOM     10  N1  UNL     1      -3.153  -0.312  -0.167  0.00  0.00    +0.000 N 
ATOM     11  N2  UNL     1      -1.995  -0.124  -0.725  0.00  0.00    +0.000 NA
ATOM     12  C6  UNL     1      -1.073   0.165   0.203  0.00  0.00    +0.000 A 
ATOM     13  N3  UNL     1      -1.730   0.145   1.375  0.00  0.00    +0.000 NA
ATOM     14  C7  UNL     1      -3.029  -0.150   1.182  0.00  0.00    +0.000 A 
ATOM     15  N4  UNL     1      -4.100  -0.295   1.980  0.00  0.00    +0.000 NA
ENDBRANCH   1  12
BRANCH   3  16
ATOM     16  S1  UNL     1       2.429   0.613  -1.879  0.00  0.00    +0.000 S 
ATOM     17  O2  UNL     1       2.504   1.704  -2.912  0.00  0.00    +0.000 OA
ATOM     18  O3  UNL     1       2.959  -0.635  -2.591  0.00  0.00    +0.000 OA
BRANCH  16  19
ATOM     19  C9  UNL     1       3.536   0.955  -0.613  0.00  0.00    +0.000 A 
ATOM     20  C10 UNL     1       3.687   2.231  -0.108  0.00  0.00    +0.000 A 
ATOM     21  C11 UNL     1       2.839   3.309  -0.660  0.00  0.00    +0.000 C 
ATOM     22  C12 UNL     1       4.598   2.505   0.888  0.00  0.00    +0.000 A 
ATOM     23  C13 UNL     1       5.398   1.520   1.426  0.00  0.00    +0.000 A 
ATOM     24  C14 UNL     1       5.255   0.249   0.932  0.00  0.00    +0.000 A 
ATOM     25  C15 UNL     1       4.330  -0.035  -0.081  0.00  0.00    +0.000 A 
BRANCH  25  26
ATOM     26  O4  UNL     1       4.279  -1.334  -0.493  0.00  0.00    +0.000 OA
BRANCH  26  27
ATOM     27  C16 UNL     1       3.513  -2.377   0.003  0.00  0.00    +0.000 C 
ATOM     28  F1  UNL     1       3.811  -3.517  -0.740  0.00  0.00    +0.000 F 
ATOM     29  F2  UNL     1       3.859  -2.625   1.325  0.00  0.00    +0.000 F 
ATOM     30  F3  UNL     1       2.173  -2.096  -0.037  0.00  0.00    +0.000 F 
ENDBRANCH  26  27
ENDBRANCH  25  26
ENDBRANCH  16  19
ENDBRANCH   3  16
TORSDOF 5
