REMARK  Name = ./3D_structures\o8_MMV689758_3D.pdb
REMARK  12 active torsions:
REMARK  status: ('A' for Active; 'I' for Inactive)
REMARK    1  A    between atoms: C1_1  and  O1_2
REMARK    2  A    between atoms: O1_2  and  C2_3
REMARK    3  A    between atoms: C10_13  and  C11_14
REMARK    4  A    between atoms: C11_14  and  C12_15
REMARK    5  A    between atoms: C11_14  and  C18_21
REMARK    6  A    between atoms: C18_21  and  O2_22
REMARK    7  A    between atoms: C18_21  and  C19_23
REMARK    8  A    between atoms: C18_21  and  C23_28
REMARK    9  A    between atoms: C19_23  and  C20_24
REMARK   10  A    between atoms: C20_24  and  N2_25
REMARK   11  A    between atoms: N2_25  and  C21_26
REMARK   12  A    between atoms: N2_25  and  C22_27
REMARK                            x       y       z     vdW  Elec       q    Type
REMARK                         _______ _______ _______ _____ _____    ______ ____
ROOT
ATOM      1  C11 UNL     1       0.136   0.197  -0.617  0.00  0.00    +0.000 C 
ENDROOT
BRANCH   1  12
ATOM      2  C2  UNL     1       1.534   0.149   1.489  0.00  0.00    +0.000 A 
ATOM      3  N1  UNL     1       2.803   0.016   2.000  0.00  0.00    +0.000 NA
ATOM      4  C3  UNL     1       3.893  -0.165   1.255  0.00  0.00    +0.000 A 
ATOM      5  C4  UNL     1       5.158  -0.295   1.789  0.00  0.00    +0.000 A 
ATOM      6  C5  UNL     1       6.278  -0.482   1.008  0.00  0.00    +0.000 A 
ATOM      7  C6  UNL     1       6.176  -0.547  -0.366  0.00  0.00    +0.000 A 
ATOM      8 BR1  UNL     1       7.730  -0.807  -1.450  0.00  0.00    +0.000 Br
ATOM      9  C7  UNL     1       4.920  -0.419  -0.915  0.00  0.00    +0.000 A 
ATOM     10  C8  UNL     1       3.798  -0.231  -0.119  0.00  0.00    +0.000 A 
ATOM     11  C9  UNL     1       2.545  -0.101  -0.646  0.00  0.00    +0.000 A 
ATOM     12  C10 UNL     1       1.383   0.092   0.155  0.00  0.00    +0.000 A 
BRANCH   2  14
ATOM     13  C1  UNL     1       0.724   0.382   3.749  0.00  0.00    +0.000 C 
ATOM     14  O1  UNL     1       0.495   0.333   2.392  0.00  0.00    +0.000 OA
ENDBRANCH   2  14
ENDBRANCH   1  12
BRANCH   1  15
ATOM     15  C12 UNL     1       0.230  -0.948  -1.625  0.00  0.00    +0.000 A 
ATOM     16  C13 UNL     1      -0.337  -0.843  -2.853  0.00  0.00    +0.000 A 
ATOM     17  C14 UNL     1      -0.169  -1.893  -3.767  0.00  0.00    +0.000 A 
ATOM     18  C15 UNL     1       0.551  -3.027  -3.463  0.00  0.00    +0.000 A 
ATOM     19  C16 UNL     1       1.125  -3.126  -2.210  0.00  0.00    +0.000 A 
ATOM     20  C17 UNL     1       0.956  -2.095  -1.322  0.00  0.00    +0.000 A 
ENDBRANCH   1  15
BRANCH   1  21
ATOM     21  C18 UNL     1      -1.187   0.417  -0.168  0.00  0.00    +0.000 C 
BRANCH  21  22
ATOM     22  C23 UNL     1      -1.583   1.757   0.410  0.00  0.00    +0.000 A 
ATOM     23  C24 UNL     1      -2.019   1.789   1.729  0.00  0.00    +0.000 A 
ATOM     24  C25 UNL     1      -2.339   2.976   2.348  0.00  0.00    +0.000 A 
ATOM     25  C26 UNL     1      -2.239   4.186   1.680  0.00  0.00    +0.000 A 
ATOM     26  C27 UNL     1      -1.812   4.175   0.369  0.00  0.00    +0.000 A 
ATOM     27  C28 UNL     1      -1.753   5.382  -0.319  0.00  0.00    +0.000 A 
ATOM     28  C29 UNL     1      -1.377   5.399  -1.643  0.00  0.00    +0.000 A 
ATOM     29  C30 UNL     1      -1.065   4.223  -2.271  0.00  0.00    +0.000 A 
ATOM     30  C31 UNL     1      -1.134   3.028  -1.547  0.00  0.00    +0.000 A 
ATOM     31  C32 UNL     1      -1.495   2.956  -0.237  0.00  0.00    +0.000 A 
ENDBRANCH  21  22
BRANCH  21  32
ATOM     32  O2  UNL     1      -2.097   0.435  -1.362  0.00  0.00    +0.000 OA
ATOM     33  H14 UNL     1      -2.955   0.675  -0.962  0.00  0.00    +0.000 HD
ENDBRANCH  21  32
BRANCH  21  34
ATOM     34  C19 UNL     1      -1.985  -0.652   0.564  0.00  0.00    +0.000 C 
BRANCH  34  35
ATOM     35  C20 UNL     1      -2.307  -1.900  -0.167  0.00  0.00    +0.000 C 
BRANCH  35  36
ATOM     36  N2  UNL     1      -3.125  -2.806   0.696  0.00  0.00    +0.000 NA
ATOM     37  C21 UNL     1      -3.418  -4.017  -0.049  0.00  0.00    +0.000 C 
ATOM     38  C22 UNL     1      -2.430  -3.134   1.900  0.00  0.00    +0.000 C 
ENDBRANCH  35  36
ENDBRANCH  34  35
ENDBRANCH  21  34
ENDBRANCH   1  21
TORSDOF 9
