REMARK  Name = ./3D_structures\o9_MMV1593532_3D.pdb
REMARK  3 active torsions:
REMARK  status: ('A' for Active; 'I' for Inactive)
REMARK    1  A    between atoms: C1_2  and  C16_20
REMARK    2  A    between atoms: C4_7  and  C5_8
REMARK    3  A    between atoms: C5_8  and  C6_9
REMARK                            x       y       z     vdW  Elec       q    Type
REMARK                         _______ _______ _______ _____ _____    ______ ____
ROOT
ATOM      1  O1  UNL     1       3.085  -0.592  -1.692  0.00  0.00    +0.000 OA
ATOM      2  C1  UNL     1       3.303  -0.768  -0.460  0.00  0.00    +0.000 C 
ATOM      3  N1  UNL     1       2.310  -0.510   0.491  0.00  0.00    +0.000 N 
ATOM      4  C2  UNL     1       1.046  -0.040  -0.010  0.00  0.00    +0.000 A 
ATOM      5  N2  UNL     1       0.476   0.237  -1.016  0.00  0.00    +0.000 NA
ATOM      6  C3  UNL     1      -0.761   0.668  -1.147  0.00  0.00    +0.000 A 
ATOM      7  C4  UNL     1      -1.482   0.819  -0.029  0.00  0.00    +0.000 A 
ATOM      8  S1  UNL     1      -0.284   0.305   1.267  0.00  0.00    +0.000 S 
ATOM      9  H1  UNL     1       2.513  -0.663   1.498  0.00  0.00    +0.000 HD
ENDROOT
BRANCH   2  10
ATOM     10  C16 UNL     1       4.623  -1.251  -0.039  0.00  0.00    +0.000 C 
ATOM     11  C17 UNL     1       5.572  -1.480  -1.164  0.00  0.00    +0.000 C 
ATOM     12  C18 UNL     1       6.125  -0.237  -1.777  0.00  0.00    +0.000 C 
ATOM     13  C19 UNL     1       6.623   0.772  -0.795  0.00  0.00    +0.000 C 
ATOM     14  C20 UNL     1       5.701   0.953   0.386  0.00  0.00    +0.000 C 
ATOM     15  C21 UNL     1       5.285  -0.367   0.988  0.00  0.00    +0.000 C 
ENDBRANCH   2  10
BRANCH   7  16
ATOM     16  C5  UNL     1      -2.845   1.259   0.253  0.00  0.00    +0.000 C 
BRANCH  16  17
ATOM     17  C6  UNL     1      -3.840   0.170   0.260  0.00  0.00    +0.000 A 
ATOM     18  C7  UNL     1      -3.498  -1.153   0.017  0.00  0.00    +0.000 A 
ATOM     19  C8  UNL     1      -4.454  -2.127   0.034  0.00  0.00    +0.000 A 
ATOM     20  C9  UNL     1      -5.773  -1.846   0.287  0.00  0.00    +0.000 A 
ATOM     21  C10 UNL     1      -6.096  -0.521   0.527  0.00  0.00    +0.000 A 
ATOM     22  C11 UNL     1      -7.413  -0.208   0.784  0.00  0.00    +0.000 A 
ATOM     23  C12 UNL     1      -7.811   1.082   1.031  0.00  0.00    +0.000 A 
ATOM     24  C13 UNL     1      -6.844   2.079   1.016  0.00  0.00    +0.000 A 
ATOM     25  C14 UNL     1      -5.530   1.796   0.763  0.00  0.00    +0.000 A 
ATOM     26  C15 UNL     1      -5.152   0.491   0.517  0.00  0.00    +0.000 A 
ENDBRANCH  16  17
ENDBRANCH   7  16
TORSDOF 3
