2D_structures\o10_MMV002224_2D.pdb
 OpenBabel02272422463D

 25 25  0  0  0  0  0  0  0  0999 V2000
   -5.5370   -1.3460    0.0000 O   0  0  0  0  0  0  0  0  0  0  0  0
   -4.9730    0.0440    0.0000 C   0  0  0  0  0  0  0  0  0  0  0  0
   -5.8950    1.2270    0.0000 O   0  0  0  0  0  0  0  0  0  0  0  0
   -3.4880    0.2500    0.0000 C   0  0  0  0  0  0  0  0  0  0  0  0
   -2.0020    0.4560    0.0000 C   0  0  0  0  0  0  0  0  0  0  0  0
   -0.5160    0.6630    0.0000 N   0  0  0  0  0  0  0  0  0  0  0  0
    0.4050   -0.5210    0.0000 C   0  0  0  0  0  0  0  0  0  0  0  0
   -0.1590   -1.9110    0.0000 O   0  0  0  0  0  0  0  0  0  0  0  0
    1.8910   -0.3140    0.0000 C   0  0  0  0  0  0  0  0  0  0  0  0
    2.4550    1.0750    0.0000 C   0  0  0  0  0  0  0  0  0  0  0  0
    3.9410    1.2820    0.0000 C   0  0  0  0  0  0  0  0  0  0  0  0
    4.8630    0.0980    0.0000 C   0  0  0  0  0  0  0  0  0  0  0  0
    4.2990   -1.2920    0.0000 C   0  0  0  0  0  0  0  0  0  0  0  0
    2.8130   -1.4980    0.0000 C   0  0  0  0  0  0  0  0  0  0  0  0
   -7.0230   -1.5520    0.0000 H   0  0  0  0  0  0  0  0  0  0  0  0
   -3.6940    1.7360    0.0000 H   0  0  0  0  0  0  0  0  0  0  0  0
   -3.2810   -1.2360    0.0000 H   0  0  0  0  0  0  0  0  0  0  0  0
   -1.7950   -1.0290    0.0000 H   0  0  0  0  0  0  0  0  0  0  0  0
   -2.2080    1.9420    0.0000 H   0  0  0  0  0  0  0  0  0  0  0  0
    0.0480    2.0530    0.0000 H   0  0  0  0  0  0  0  0  0  0  0  0
    1.5340    2.2590    0.0000 H   0  0  0  0  0  0  0  0  0  0  0  0
    4.5050    2.6720    0.0000 H   0  0  0  0  0  0  0  0  0  0  0  0
    6.3480    0.3050    0.0000 H   0  0  0  0  0  0  0  0  0  0  0  0
    5.2200   -2.4750    0.0000 H   0  0  0  0  0  0  0  0  0  0  0  0
    2.2490   -2.8880    0.0000 H   0  0  0  0  0  0  0  0  0  0  0  0
  1  2  1  0  0  0  0
  1 15  1  0  0  0  0
  2  3  2  0  0  0  0
  2  4  1  0  0  0  0
  4  5  1  0  0  0  0
  4 16  1  0  0  0  0
  4 17  1  0  0  0  0
  5  6  1  0  0  0  0
  5 18  1  0  0  0  0
  5 19  1  0  0  0  0
  6  7  1  0  0  0  0
  6 20  1  0  0  0  0
  7  8  2  0  0  0  0
  7  9  1  0  0  0  0
  9 10  2  0  0  0  0
  9 14  1  0  0  0  0
 10 11  1  0  0  0  0
 10 21  1  0  0  0  0
 11 12  2  0  0  0  0
 11 22  1  0  0  0  0
 12 13  1  0  0  0  0
 12 23  1  0  0  0  0
 13 14  2  0  0  0  0
 13 24  1  0  0  0  0
 14 25  1  0  0  0  0
M  END
$$$$
