2D_structures\o12_MMV1580846_2D.pdb
 OpenBabel02272422463D

 36 36  0  0  1  0  0  0  0  0999 V2000
   -7.4400    0.7420    0.0000 C   0  0  0  0  0  0  0  0  0  0  0  0
   -6.4550   -0.3890    0.0000 O   0  0  0  0  0  0  0  0  0  0  0  0
   -4.9830   -0.1020    0.0000 C   0  0  0  0  0  0  0  0  0  0  0  0
   -4.4960    1.3170    0.0000 C   0  0  0  0  0  0  0  0  0  0  0  0
   -3.0240    1.6050    0.0000 C   0  0  0  0  0  0  0  0  0  0  0  0
   -2.0390    0.4740    0.0000 C   0  0  0  0  0  0  0  0  0  0  0  0
   -0.5670    0.7610    0.0000 S   0  0  0  0  0  0  0  0  0  0  0  0
    0.4190   -0.3700    0.0000 C   0  0  0  0  0  0  0  0  0  0  0  0
   -0.0600   -1.3530    0.0000 O   0  0  0  0  0  0  0  0  0  0  0  0
    1.8910   -0.0820    0.0000 N   0  0  0  0  0  0  0  0  0  0  0  0
    2.8760   -1.2140    0.0000 C   0  0  1  0  0  0  0  0  0  0  0  0
    4.0070   -0.2280    0.0000 C   0  0  0  0  0  0  0  0  0  0  0  0
    5.1380    0.7570    0.0000 C   0  0  0  0  0  0  0  0  0  0  0  0
    6.2690    1.7420    0.0000 C   0  0  0  0  0  0  0  0  0  0  0  0
    5.9820    3.2140    0.0000 O   0  0  0  0  0  0  0  0  0  0  0  0
    7.6880    1.2550    0.0000 O   0  0  0  0  0  0  0  0  0  0  0  0
    1.7450   -2.1990    0.0000 C   0  0  0  0  0  0  0  0  0  0  0  0
    0.6750   -1.9720    0.0000 O   0  0  0  0  0  0  0  0  0  0  0  0
    2.0320   -3.6710    0.0000 O   0  0  0  0  0  0  0  0  0  0  0  0
   -2.5260   -0.9450    0.0000 C   0  0  0  0  0  0  0  0  0  0  0  0
   -3.9980   -1.2330    0.0000 C   0  0  0  0  0  0  0  0  0  0  0  0
   -8.4260    1.8730    0.0000 H   0  0  0  0  0  0  0  0  0  0  0  0
   -8.5720   -0.2430    0.0000 H   0  0  0  0  0  0  0  0  0  0  0  0
   -6.3090    1.7270    0.0000 H   0  0  0  0  0  0  0  0  0  0  0  0
   -5.4810    2.4480    0.0000 H   0  0  0  0  0  0  0  0  0  0  0  0
   -2.5370    3.0230    0.0000 H   0  0  0  0  0  0  0  0  0  0  0  0
    2.2010    1.3850    0.0000 H   0  0  0  0  0  0  0  0  0  0  0  0
    3.8610   -2.3450    0.0000 H   0  0  0  0  0  0  0  0  0  0  0  0
    4.9920   -1.3600    0.0000 H   0  0  0  0  0  0  0  0  0  0  0  0
    3.1670    1.0140    0.0000 H   0  0  0  0  0  0  0  0  0  0  0  0
    4.1530    1.8880    0.0000 H   0  0  0  0  0  0  0  0  0  0  0  0
    6.1230   -0.3740    0.0000 H   0  0  0  0  0  0  0  0  0  0  0  0
    8.8190    2.2400    0.0000 H   0  0  0  0  0  0  0  0  0  0  0  0
    0.9010   -4.6560    0.0000 H   0  0  0  0  0  0  0  0  0  0  0  0
   -1.5410   -2.0760    0.0000 H   0  0  0  0  0  0  0  0  0  0  0  0
   -4.4850   -2.6520    0.0000 H   0  0  0  0  0  0  0  0  0  0  0  0
  1  2  1  0  0  0  0
  1 22  1  0  0  0  0
  1 23  1  0  0  0  0
  1 24  1  0  0  0  0
  2  3  1  0  0  0  0
  3  4  2  0  0  0  0
  3 21  1  0  0  0  0
  4  5  1  0  0  0  0
  4 25  1  0  0  0  0
  5  6  2  0  0  0  0
  5 26  1  0  0  0  0
  6  7  1  0  0  0  0
  6 20  1  0  0  0  0
  7  8  1  0  0  0  0
  8  9  2  0  0  0  0
  8 10  1  0  0  0  0
 10 11  1  0  0  0  0
 10 27  1  0  0  0  0
 11 12  1  0  0  0  0
 11 17  1  0  0  0  0
 11 28  1  6  0  0  0
 12 13  1  0  0  0  0
 12 29  1  0  0  0  0
 12 30  1  0  0  0  0
 13 14  1  0  0  0  0
 13 31  1  0  0  0  0
 13 32  1  0  0  0  0
 14 15  2  0  0  0  0
 14 16  1  0  0  0  0
 16 33  1  0  0  0  0
 17 18  2  0  0  0  0
 17 19  1  0  0  0  0
 19 34  1  0  0  0  0
 20 21  2  0  0  0  0
 20 35  1  0  0  0  0
 21 36  1  0  0  0  0
M  END
$$$$
