2D_structures\o13_MMV1580845_2D.pdb
 OpenBabel02272422463D

 38 38  0  0  1  0  0  0  0  0999 V2000
   -2.9380    2.1490    0.0000 C   0  0  0  0  0  0  0  0  0  0  0  0
   -2.1700    0.8600    0.0000 C   0  0  1  0  0  0  0  0  0  0  0  0
   -3.4590    0.0930    0.0000 N   0  0  0  0  0  0  0  0  0  0  0  0
   -4.7680    0.8250    0.0000 C   0  0  0  0  0  0  0  0  0  0  0  0
   -4.7800    1.7110    0.0000 O   0  0  0  0  0  0  0  0  0  0  0  0
   -6.0570    0.0580    0.0000 C   0  0  0  0  0  0  0  0  0  0  0  0
   -1.4030   -0.4280    0.0000 C   0  0  0  0  0  0  0  0  0  0  0  0
   -2.0490   -1.3110    0.0000 O   0  0  0  0  0  0  0  0  0  0  0  0
    0.0970   -0.4080    0.0000 N   0  0  0  0  0  0  0  0  0  0  0  0
    0.8650   -1.6970    0.0000 C   0  0  1  0  0  0  0  0  0  0  0  0
    2.1530   -0.9300    0.0000 C   0  0  0  0  0  0  0  0  0  0  0  0
    3.4420   -0.1620    0.0000 C   0  0  0  0  0  0  0  0  0  0  0  0
    3.4220    1.3380    0.0000 C   0  0  0  0  0  0  0  0  0  0  0  0
    4.7110    2.1050    0.0000 C   0  0  0  0  0  0  0  0  0  0  0  0
    6.0200    1.3730    0.0000 C   0  0  0  0  0  0  0  0  0  0  0  0
    6.0400   -0.1270    0.0000 C   0  0  0  0  0  0  0  0  0  0  0  0
    4.7510   -0.8940    0.0000 C   0  0  0  0  0  0  0  0  0  0  0  0
   -0.4240   -2.4640    0.0000 C   0  0  0  0  0  0  0  0  0  0  0  0
   -1.4360   -2.0510    0.0000 O   0  0  0  0  0  0  0  0  0  0  0  0
   -0.4040   -3.9640    0.0000 O   0  0  0  0  0  0  0  0  0  0  0  0
   -3.7050    3.4380    0.0000 H   0  0  0  0  0  0  0  0  0  0  0  0
   -1.6490    2.9170    0.0000 H   0  0  0  0  0  0  0  0  0  0  0  0
   -3.7860    1.8940    0.0000 H   0  0  0  0  0  0  0  0  0  0  0  0
   -0.8810    1.6280    0.0000 H   0  0  0  0  0  0  0  0  0  0  0  0
   -3.4390   -1.4070    0.0000 H   0  0  0  0  0  0  0  0  0  0  0  0
   -7.3460   -0.7100    0.0000 H   0  0  0  0  0  0  0  0  0  0  0  0
   -6.8240    1.3470    0.0000 H   0  0  0  0  0  0  0  0  0  0  0  0
   -5.2890   -1.2310    0.0000 H   0  0  0  0  0  0  0  0  0  0  0  0
    0.6640    0.9800    0.0000 H   0  0  0  0  0  0  0  0  0  0  0  0
    1.6320   -2.9860    0.0000 H   0  0  0  0  0  0  0  0  0  0  0  0
    1.5490    0.4430    0.0000 H   0  0  0  0  0  0  0  0  0  0  0  0
    2.9210   -2.2180    0.0000 H   0  0  0  0  0  0  0  0  0  0  0  0
    2.1130    2.0700    0.0000 H   0  0  0  0  0  0  0  0  0  0  0  0
    4.6900    3.6050    0.0000 H   0  0  0  0  0  0  0  0  0  0  0  0
    7.3090    2.1400    0.0000 H   0  0  0  0  0  0  0  0  0  0  0  0
    7.3490   -0.8590    0.0000 H   0  0  0  0  0  0  0  0  0  0  0  0
    4.7720   -2.3940    0.0000 H   0  0  0  0  0  0  0  0  0  0  0  0
   -1.6930   -4.7320    0.0000 H   0  0  0  0  0  0  0  0  0  0  0  0
  1  2  1  0  0  0  0
  1 21  1  0  0  0  0
  1 22  1  0  0  0  0
  1 23  1  0  0  0  0
  2  3  1  0  0  0  0
  2  7  1  0  0  0  0
  2 24  1  1  0  0  0
  3  4  1  0  0  0  0
  3 25  1  0  0  0  0
  4  5  2  0  0  0  0
  4  6  1  0  0  0  0
  6 26  1  0  0  0  0
  6 27  1  0  0  0  0
  6 28  1  0  0  0  0
  7  8  2  0  0  0  0
  7  9  1  0  0  0  0
  9 10  1  0  0  0  0
  9 29  1  0  0  0  0
 10 11  1  0  0  0  0
 10 18  1  0  0  0  0
 10 30  1  6  0  0  0
 11 12  1  0  0  0  0
 11 31  1  0  0  0  0
 11 32  1  0  0  0  0
 12 13  2  0  0  0  0
 12 17  1  0  0  0  0
 13 14  1  0  0  0  0
 13 33  1  0  0  0  0
 14 15  2  0  0  0  0
 14 34  1  0  0  0  0
 15 16  1  0  0  0  0
 15 35  1  0  0  0  0
 16 17  2  0  0  0  0
 16 36  1  0  0  0  0
 17 37  1  0  0  0  0
 18 19  2  0  0  0  0
 18 20  1  0  0  0  0
 20 38  1  0  0  0  0
M  END
$$$$
