2D_structures\o14_MMV1579850_2D.pdb
 OpenBabel02272422463D

 46 50  0  0  1  0  0  0  0  0999 V2000
   -4.0320    2.4020    0.0000 N   0  0  0  0  0  0  0  0  0  0  0  0
   -4.1480    0.9060    0.0000 C   0  0  1  0  0  0  0  0  0  0  0  0
   -2.6490    0.9470    0.0000 C   0  0  0  0  0  0  0  0  0  0  0  0
   -2.1460   -0.4660    0.0000 N   0  0  0  0  0  0  0  0  0  0  0  0
   -3.3350   -1.3810    0.0000 C   0  0  0  0  0  0  0  0  0  0  0  0
   -4.5720   -0.5330    0.0000 C   0  0  0  0  0  0  0  0  0  0  0  0
   -6.0470   -0.2610    0.0000 C   0  0  0  0  0  0  0  0  0  0  0  0
   -5.5450   -1.6740    0.0000 C   0  0  0  0  0  0  0  0  0  0  0  0
   -0.7070   -0.8900    0.0000 C   0  0  0  0  0  0  0  0  0  0  0  0
   -0.3550   -2.3480    0.0000 C   0  0  0  0  0  0  0  0  0  0  0  0
   -1.4420   -3.3820    0.0000 F   0  0  0  0  0  0  0  0  0  0  0  0
    1.0840   -2.7720    0.0000 C   0  0  0  0  0  0  0  0  0  0  0  0
    2.1700   -1.7380    0.0000 C   0  0  0  0  0  0  0  0  0  0  0  0
    3.6090   -2.1630    0.0000 C   0  0  0  0  0  0  0  0  0  0  0  0
    3.9610   -3.6210    0.0000 O   0  0  0  0  0  0  0  0  0  0  0  0
    4.6960   -1.1290    0.0000 C   0  0  0  0  0  0  0  0  0  0  0  0
    4.3440    0.3300    0.0000 C   0  0  0  0  0  0  0  0  0  0  0  0
    2.9050    0.7540    0.0000 N   0  0  0  0  0  0  0  0  0  0  0  0
    2.5530    2.2120    0.0000 C   0  0  1  0  0  0  0  0  0  0  0  0
    2.7210    3.7020    0.0000 C   0  0  0  0  0  0  0  0  0  0  0  0
    3.9280    2.8120    0.0000 C   0  0  1  0  0  0  0  0  0  0  0  0
    5.0140    3.8460    0.0000 F   0  0  0  0  0  0  0  0  0  0  0  0
    1.8180   -0.2800    0.0000 C   0  0  0  0  0  0  0  0  0  0  0  0
    0.3790    0.1440    0.0000 C   0  0  0  0  0  0  0  0  0  0  0  0
    0.0270    1.6020    0.0000 Cl  0  0  0  0  0  0  0  0  0  0  0  0
    6.1350   -1.5530    0.0000 C   0  0  0  0  0  0  0  0  0  0  0  0
    7.2210   -0.5190    0.0000 O   0  0  0  0  0  0  0  0  0  0  0  0
    6.4870   -3.0110    0.0000 O   0  0  0  0  0  0  0  0  0  0  0  0
   -3.0090    3.0560    0.0000 H   0  0  0  0  0  0  0  0  0  0  0  0
   -5.2700    3.2500    0.0000 H   0  0  0  0  0  0  0  0  0  0  0  0
   -5.3070    1.2700    0.0000 H   0  0  0  0  0  0  0  0  0  0  0  0
   -1.1910    1.2990    0.0000 H   0  0  0  0  0  0  0  0  0  0  0  0
   -2.6610    2.1620    0.0000 H   0  0  0  0  0  0  0  0  0  0  0  0
   -4.0040   -2.3950    0.0000 H   0  0  0  0  0  0  0  0  0  0  0  0
   -2.3010   -2.4670    0.0000 H   0  0  0  0  0  0  0  0  0  0  0  0
   -6.1870    0.9460    0.0000 H   0  0  0  0  0  0  0  0  0  0  0  0
   -7.5270   -0.5110    0.0000 H   0  0  0  0  0  0  0  0  0  0  0  0
   -6.8500   -2.4150    0.0000 H   0  0  0  0  0  0  0  0  0  0  0  0
   -4.8910   -2.6980    0.0000 H   0  0  0  0  0  0  0  0  0  0  0  0
    1.4360   -4.2300    0.0000 H   0  0  0  0  0  0  0  0  0  0  0  0
    5.3190    1.0530    0.0000 H   0  0  0  0  0  0  0  0  0  0  0  0
    1.0560    2.1180    0.0000 H   0  0  0  0  0  0  0  0  0  0  0  0
    1.2820    4.1260    0.0000 H   0  0  0  0  0  0  0  0  0  0  0  0
    3.3880    5.0460    0.0000 H   0  0  0  0  0  0  0  0  0  0  0  0
    4.7180    1.8890    0.0000 H   0  0  0  0  0  0  0  0  0  0  0  0
    7.9250   -3.4350    0.0000 H   0  0  0  0  0  0  0  0  0  0  0  0
  1  2  1  0  0  0  0
  1 29  1  0  0  0  0
  1 30  1  0  0  0  0
  2  3  1  0  0  0  0
  2  6  1  0  0  0  0
  2 31  1  6  0  0  0
  3  4  1  0  0  0  0
  3 32  1  0  0  0  0
  3 33  1  0  0  0  0
  4  5  1  0  0  0  0
  4  9  1  0  0  0  0
  5  6  1  0  0  0  0
  5 34  1  0  0  0  0
  5 35  1  0  0  0  0
  6  7  1  0  0  0  0
  6  8  1  0  0  0  0
  7  8  1  0  0  0  0
  7 36  1  0  0  0  0
  7 37  1  0  0  0  0
  8 38  1  0  0  0  0
  8 39  1  0  0  0  0
  9 10  2  0  0  0  0
  9 24  1  0  0  0  0
 10 11  1  0  0  0  0
 10 12  1  0  0  0  0
 12 13  2  0  0  0  0
 12 40  1  0  0  0  0
 13 14  1  0  0  0  0
 13 23  1  0  0  0  0
 14 15  2  0  0  0  0
 14 16  1  0  0  0  0
 16 17  2  0  0  0  0
 16 26  1  0  0  0  0
 17 18  1  0  0  0  0
 17 41  1  0  0  0  0
 18 19  1  0  0  0  0
 18 23  1  0  0  0  0
 19 20  1  0  0  0  0
 19 21  1  0  0  0  0
 19 42  1  6  0  0  0
 20 21  1  0  0  0  0
 20 43  1  0  0  0  0
 20 44  1  0  0  0  0
 21 22  1  0  0  0  0
 21 45  1  6  0  0  0
 23 24  2  0  0  0  0
 24 25  1  0  0  0  0
 26 27  2  0  0  0  0
 26 28  1  0  0  0  0
 28 46  1  0  0  0  0
M  END
$$$$
