2D_structures\o15_MMV374187_2D.pdb
 OpenBabel02272422463D

 33 35  0  0  0  0  0  0  0  0999 V2000
    7.3160   -0.3350    0.0000 C   0  0  0  0  0  0  0  0  0  0  0  0
    6.3430    0.8070    0.0000 O   0  0  0  0  0  0  0  0  0  0  0  0
    4.8680    0.5360    0.0000 C   0  0  0  0  0  0  0  0  0  0  0  0
    4.3650   -0.8770    0.0000 C   0  0  0  0  0  0  0  0  0  0  0  0
    2.8900   -1.1480    0.0000 C   0  0  0  0  0  0  0  0  0  0  0  0
    1.9180   -0.0060    0.0000 C   0  0  0  0  0  0  0  0  0  0  0  0
    0.4420   -0.2780    0.0000 N   0  0  0  0  0  0  0  0  0  0  0  0
   -0.5300    0.8640    0.0000 C   0  0  0  0  0  0  0  0  0  0  0  0
   -0.0270    2.2780    0.0000 O   0  0  0  0  0  0  0  0  0  0  0  0
   -2.0050    0.5930    0.0000 C   0  0  0  0  0  0  0  0  0  0  0  0
   -2.6530   -0.7600    0.0000 C   0  0  0  0  0  0  0  0  0  0  0  0
   -4.1400   -0.5620    0.0000 C   0  0  0  0  0  0  0  0  0  0  0  0
   -5.2820   -1.5340    0.0000 C   0  0  0  0  0  0  0  0  0  0  0  0
   -6.6950   -1.0310    0.0000 C   0  0  0  0  0  0  0  0  0  0  0  0
   -6.9670    0.4440    0.0000 C   0  0  0  0  0  0  0  0  0  0  0  0
   -5.8240    1.4160    0.0000 C   0  0  0  0  0  0  0  0  0  0  0  0
   -4.4110    0.9140    0.0000 N   0  0  0  0  0  0  0  0  0  0  0  0
   -3.0920    1.6270    0.0000 N   0  0  0  0  0  0  0  0  0  0  0  0
    2.4200    1.4070    0.0000 C   0  0  0  0  0  0  0  0  0  0  0  0
    3.8960    1.6780    0.0000 C   0  0  0  0  0  0  0  0  0  0  0  0
    8.2880   -1.4770    0.0000 H   0  0  0  0  0  0  0  0  0  0  0  0
    8.4580    0.6380    0.0000 H   0  0  0  0  0  0  0  0  0  0  0  0
    6.1740   -1.3070    0.0000 H   0  0  0  0  0  0  0  0  0  0  0  0
    5.3380   -2.0190    0.0000 H   0  0  0  0  0  0  0  0  0  0  0  0
    2.3870   -2.5620    0.0000 H   0  0  0  0  0  0  0  0  0  0  0  0
   -0.0600   -1.6910    0.0000 H   0  0  0  0  0  0  0  0  0  0  0  0
   -1.9390   -2.0790    0.0000 H   0  0  0  0  0  0  0  0  0  0  0  0
   -5.0110   -3.0090    0.0000 H   0  0  0  0  0  0  0  0  0  0  0  0
   -7.8370   -2.0040    0.0000 H   0  0  0  0  0  0  0  0  0  0  0  0
   -8.3800    0.9470    0.0000 H   0  0  0  0  0  0  0  0  0  0  0  0
   -6.0960    2.8920    0.0000 H   0  0  0  0  0  0  0  0  0  0  0  0
    1.4480    2.5490    0.0000 H   0  0  0  0  0  0  0  0  0  0  0  0
    4.3990    3.0910    0.0000 H   0  0  0  0  0  0  0  0  0  0  0  0
  1  2  1  0  0  0  0
  1 21  1  0  0  0  0
  1 22  1  0  0  0  0
  1 23  1  0  0  0  0
  2  3  1  0  0  0  0
  3  4  2  0  0  0  0
  3 20  1  0  0  0  0
  4  5  1  0  0  0  0
  4 24  1  0  0  0  0
  5  6  2  0  0  0  0
  5 25  1  0  0  0  0
  6  7  1  0  0  0  0
  6 19  1  0  0  0  0
  7  8  1  0  0  0  0
  7 26  1  0  0  0  0
  8  9  2  0  0  0  0
  8 10  1  0  0  0  0
 10 11  1  0  0  0  0
 10 18  2  0  0  0  0
 11 12  2  0  0  0  0
 11 27  1  0  0  0  0
 12 13  1  0  0  0  0
 12 17  1  0  0  0  0
 13 14  2  0  0  0  0
 13 28  1  0  0  0  0
 14 15  1  0  0  0  0
 14 29  1  0  0  0  0
 15 16  2  0  0  0  0
 15 30  1  0  0  0  0
 16 17  1  0  0  0  0
 16 31  1  0  0  0  0
 17 18  1  0  0  0  0
 19 20  2  0  0  0  0
 19 32  1  0  0  0  0
 20 33  1  0  0  0  0
M  END
$$$$
