2D_structures\o16_MMV1579781_2D.pdb
 OpenBabel02272422463D

 38 39  0  0  1  0  0  0  0  0999 V2000
    1.5820   -3.0000    0.0000 C   0  0  0  0  0  0  0  0  0  0  0  0
    0.6480   -1.8260    0.0000 C   0  0  1  0  0  0  0  0  0  0  0  0
    1.8230   -0.8930    0.0000 C   0  0  0  0  0  0  0  0  0  0  0  0
    2.9970    0.0400    0.0000 C   0  0  0  0  0  0  0  0  0  0  0  0
    4.3920   -0.5100    0.0000 C   0  0  0  0  0  0  0  0  0  0  0  0
    5.5670    0.4230    0.0000 C   0  0  0  0  0  0  0  0  0  0  0  0
    5.3450    1.9070    0.0000 C   0  0  0  0  0  0  0  0  0  0  0  0
    3.9500    2.4570    0.0000 C   0  0  0  0  0  0  0  0  0  0  0  0
    2.7760    1.5240    0.0000 C   0  0  0  0  0  0  0  0  0  0  0  0
   -0.2850   -0.6520    0.0000 C   0  0  0  0  0  0  0  0  0  0  0  0
    0.0910    0.8000    0.0000 O   0  0  0  0  0  0  0  0  0  0  0  0
   -1.7690   -0.8730    0.0000 N   0  0  0  0  0  0  0  0  0  0  0  0
   -2.7020    0.3010    0.0000 C   0  0  0  0  0  0  0  0  0  0  0  0
   -2.1520    1.6970    0.0000 C   0  0  0  0  0  0  0  0  0  0  0  0
   -3.0850    2.8710    0.0000 C   0  0  0  0  0  0  0  0  0  0  0  0
   -4.5690    2.6500    0.0000 C   0  0  0  0  0  0  0  0  0  0  0  0
   -5.5020    3.8240    0.0000 Cl  0  0  0  0  0  0  0  0  0  0  0  0
   -5.1190    1.2540    0.0000 C   0  0  0  0  0  0  0  0  0  0  0  0
   -4.1860    0.0800    0.0000 C   0  0  0  0  0  0  0  0  0  0  0  0
   -4.7360   -1.3150    0.0000 C   0  0  0  0  0  0  0  0  0  0  0  0
   -6.2190   -1.5360    0.0000 O   0  0  0  0  0  0  0  0  0  0  0  0
   -3.8030   -2.4900    0.0000 O   0  0  0  0  0  0  0  0  0  0  0  0
    2.5150   -4.1750    0.0000 H   0  0  0  0  0  0  0  0  0  0  0  0
    0.4070   -3.9340    0.0000 H   0  0  0  0  0  0  0  0  0  0  0  0
    2.3370   -2.5380    0.0000 H   0  0  0  0  0  0  0  0  0  0  0  0
   -0.5260   -2.7590    0.0000 H   0  0  0  0  0  0  0  0  0  0  0  0
    1.0390    0.3860    0.0000 H   0  0  0  0  0  0  0  0  0  0  0  0
    2.4540   -1.5140    0.0000 H   0  0  0  0  0  0  0  0  0  0  0  0
    4.6130   -1.9930    0.0000 H   0  0  0  0  0  0  0  0  0  0  0  0
    6.9620   -0.1270    0.0000 H   0  0  0  0  0  0  0  0  0  0  0  0
    6.5200    2.8400    0.0000 H   0  0  0  0  0  0  0  0  0  0  0  0
    3.7290    3.9410    0.0000 H   0  0  0  0  0  0  0  0  0  0  0  0
    1.3800    2.0740    0.0000 H   0  0  0  0  0  0  0  0  0  0  0  0
   -2.3190   -2.2680    0.0000 H   0  0  0  0  0  0  0  0  0  0  0  0
   -0.6680    1.9180    0.0000 H   0  0  0  0  0  0  0  0  0  0  0  0
   -2.5350    4.2660    0.0000 H   0  0  0  0  0  0  0  0  0  0  0  0
   -6.6020    1.0330    0.0000 H   0  0  0  0  0  0  0  0  0  0  0  0
   -4.3530   -3.8850    0.0000 H   0  0  0  0  0  0  0  0  0  0  0  0
  1  2  1  0  0  0  0
  1 23  1  0  0  0  0
  1 24  1  0  0  0  0
  1 25  1  0  0  0  0
  2  3  1  0  0  0  0
  2 10  1  0  0  0  0
  2 26  1  1  0  0  0
  3  4  1  0  0  0  0
  3 27  1  0  0  0  0
  3 28  1  0  0  0  0
  4  5  2  0  0  0  0
  4  9  1  0  0  0  0
  5  6  1  0  0  0  0
  5 29  1  0  0  0  0
  6  7  2  0  0  0  0
  6 30  1  0  0  0  0
  7  8  1  0  0  0  0
  7 31  1  0  0  0  0
  8  9  2  0  0  0  0
  8 32  1  0  0  0  0
  9 33  1  0  0  0  0
 10 11  2  0  0  0  0
 10 12  1  0  0  0  0
 12 13  1  0  0  0  0
 12 34  1  0  0  0  0
 13 14  2  0  0  0  0
 13 19  1  0  0  0  0
 14 15  1  0  0  0  0
 14 35  1  0  0  0  0
 15 16  2  0  0  0  0
 15 36  1  0  0  0  0
 16 17  1  0  0  0  0
 16 18  1  0  0  0  0
 18 19  2  0  0  0  0
 18 37  1  0  0  0  0
 19 20  1  0  0  0  0
 20 21  2  0  0  0  0
 20 22  1  0  0  0  0
 22 38  1  0  0  0  0
M  END
$$$$
