2D_structures\o17_MMV1579780_2D.pdb
 OpenBabel02272422463D

 52 55  0  0  0  0  0  0  0  0999 V2000
    3.0870    4.7850    0.0000 C   0  0  0  0  0  0  0  0  0  0  0  0
    3.1220    3.2850    0.0000 C   0  0  0  0  0  0  0  0  0  0  0  0
    3.1560    1.7860    0.0000 C   0  0  0  0  0  0  0  0  0  0  0  0
    1.6220    3.2510    0.0000 N   0  0  0  0  0  0  0  0  0  0  0  0
    0.7130    4.4440    0.0000 C   0  0  0  0  0  0  0  0  0  0  0  0
   -0.7030    3.9480    0.0000 N   0  0  0  0  0  0  0  0  0  0  0  0
   -0.6680    2.4480    0.0000 C   0  0  0  0  0  0  0  0  0  0  0  0
   -1.7600    1.4190    0.0000 C   0  0  0  0  0  0  0  0  0  0  0  0
   -3.1970    1.8490    0.0000 N   0  0  0  0  0  0  0  0  0  0  0  0
   -4.2880    0.8200    0.0000 C   0  0  0  0  0  0  0  0  0  0  0  0
   -5.3790   -0.2090    0.0000 C   0  0  0  0  0  0  0  0  0  0  0  0
   -6.8160    0.2220    0.0000 C   0  0  0  0  0  0  0  0  0  0  0  0
   -7.9070   -0.8070    0.0000 C   0  0  0  0  0  0  0  0  0  0  0  0
   -7.5620   -2.2670    0.0000 C   0  0  0  0  0  0  0  0  0  0  0  0
   -6.1250   -2.6980    0.0000 C   0  0  0  0  0  0  0  0  0  0  0  0
   -5.0340   -1.6680    0.0000 C   0  0  0  0  0  0  0  0  0  0  0  0
   -1.4140   -0.0410    0.0000 N   0  0  0  0  0  0  0  0  0  0  0  0
    0.0230   -0.4710    0.0000 C   0  0  0  0  0  0  0  0  0  0  0  0
    0.3680   -1.9310    0.0000 N   0  0  0  0  0  0  0  0  0  0  0  0
    1.8050   -2.3620    0.0000 C   0  0  0  0  0  0  0  0  0  0  0  0
    3.2420   -2.7920    0.0000 C   0  0  0  0  0  0  0  0  0  0  0  0
    4.3330   -1.7630    0.0000 C   0  0  0  0  0  0  0  0  0  0  0  0
    5.7700   -2.1940    0.0000 C   0  0  0  0  0  0  0  0  0  0  0  0
    6.1160   -3.6530    0.0000 C   0  0  0  0  0  0  0  0  0  0  0  0
    5.0250   -4.6820    0.0000 C   0  0  0  0  0  0  0  0  0  0  0  0
    3.5880   -4.2520    0.0000 C   0  0  0  0  0  0  0  0  0  0  0  0
    1.1140    0.5580    0.0000 N   0  0  0  0  0  0  0  0  0  0  0  0
    0.7690    2.0170    0.0000 C   0  0  0  0  0  0  0  0  0  0  0  0
    3.0530    6.2850    0.0000 H   0  0  0  0  0  0  0  0  0  0  0  0
    4.5870    4.8200    0.0000 H   0  0  0  0  0  0  0  0  0  0  0  0
    1.5880    4.7510    0.0000 H   0  0  0  0  0  0  0  0  0  0  0  0
    4.6210    3.3200    0.0000 H   0  0  0  0  0  0  0  0  0  0  0  0
    3.1910    0.2860    0.0000 H   0  0  0  0  0  0  0  0  0  0  0  0
    4.6560    1.8200    0.0000 H   0  0  0  0  0  0  0  0  0  0  0  0
    1.6570    1.7510    0.0000 H   0  0  0  0  0  0  0  0  0  0  0  0
    1.1430    5.8810    0.0000 H   0  0  0  0  0  0  0  0  0  0  0  0
   -3.5420    3.3090    0.0000 H   0  0  0  0  0  0  0  0  0  0  0  0
   -3.2590   -0.2710    0.0000 H   0  0  0  0  0  0  0  0  0  0  0  0
   -5.3170    1.9120    0.0000 H   0  0  0  0  0  0  0  0  0  0  0  0
   -7.1620    1.6810    0.0000 H   0  0  0  0  0  0  0  0  0  0  0  0
   -9.3440   -0.3770    0.0000 H   0  0  0  0  0  0  0  0  0  0  0  0
   -8.6530   -3.2960    0.0000 H   0  0  0  0  0  0  0  0  0  0  0  0
   -5.7790   -4.1570    0.0000 H   0  0  0  0  0  0  0  0  0  0  0  0
   -3.5970   -2.0990    0.0000 H   0  0  0  0  0  0  0  0  0  0  0  0
   -0.7230   -2.9600    0.0000 H   0  0  0  0  0  0  0  0  0  0  0  0
    2.2360   -0.9250    0.0000 H   0  0  0  0  0  0  0  0  0  0  0  0
    1.3750   -3.7980    0.0000 H   0  0  0  0  0  0  0  0  0  0  0  0
    3.9880   -0.3030    0.0000 H   0  0  0  0  0  0  0  0  0  0  0  0
    6.8620   -1.1640    0.0000 H   0  0  0  0  0  0  0  0  0  0  0  0
    7.5530   -4.0840    0.0000 H   0  0  0  0  0  0  0  0  0  0  0  0
    5.3700   -6.1420    0.0000 H   0  0  0  0  0  0  0  0  0  0  0  0
    2.4960   -5.2810    0.0000 H   0  0  0  0  0  0  0  0  0  0  0  0
  1  2  1  0  0  0  0
  1 29  1  0  0  0  0
  1 30  1  0  0  0  0
  1 31  1  0  0  0  0
  2  3  1  0  0  0  0
  2  4  1  0  0  0  0
  2 32  1  0  0  0  0
  3 33  1  0  0  0  0
  3 34  1  0  0  0  0
  3 35  1  0  0  0  0
  4  5  1  0  0  0  0
  4 28  1  0  0  0  0
  5  6  2  0  0  0  0
  5 36  1  0  0  0  0
  6  7  1  0  0  0  0
  7  8  2  0  0  0  0
  7 28  1  0  0  0  0
  8  9  1  0  0  0  0
  8 17  1  0  0  0  0
  9 10  1  0  0  0  0
  9 37  1  0  0  0  0
 10 11  1  0  0  0  0
 10 38  1  0  0  0  0
 10 39  1  0  0  0  0
 11 12  2  0  0  0  0
 11 16  1  0  0  0  0
 12 13  1  0  0  0  0
 12 40  1  0  0  0  0
 13 14  2  0  0  0  0
 13 41  1  0  0  0  0
 14 15  1  0  0  0  0
 14 42  1  0  0  0  0
 15 16  2  0  0  0  0
 15 43  1  0  0  0  0
 16 44  1  0  0  0  0
 17 18  2  0  0  0  0
 18 19  1  0  0  0  0
 18 27  1  0  0  0  0
 19 20  1  0  0  0  0
 19 45  1  0  0  0  0
 20 21  1  0  0  0  0
 20 46  1  0  0  0  0
 20 47  1  0  0  0  0
 21 22  2  0  0  0  0
 21 26  1  0  0  0  0
 22 23  1  0  0  0  0
 22 48  1  0  0  0  0
 23 24  2  0  0  0  0
 23 49  1  0  0  0  0
 24 25  1  0  0  0  0
 24 50  1  0  0  0  0
 25 26  2  0  0  0  0
 25 51  1  0  0  0  0
 26 52  1  0  0  0  0
 27 28  2  0  0  0  0
M  END
$$$$
