2D_structures\o18_MMV688756_2D.pdb
 OpenBabel02272422463D

 44 46  0  0  1  0  0  0  0  0999 V2000
   -7.6440   -2.1400    0.0000 C   0  0  0  0  0  0  0  0  0  0  0  0
   -6.8700   -0.8550    0.0000 C   0  0  0  0  0  0  0  0  0  0  0  0
   -7.5950    0.4580    0.0000 O   0  0  0  0  0  0  0  0  0  0  0  0
   -5.3700   -0.8840    0.0000 N   0  0  0  0  0  0  0  0  0  0  0  0
   -4.5950    0.4010    0.0000 C   0  0  0  0  0  0  0  0  0  0  0  0
   -3.8210    1.6850    0.0000 C   0  0  1  0  0  0  0  0  0  0  0  0
   -2.6240    0.7810    0.0000 C   0  0  0  0  0  0  0  0  0  0  0  0
   -1.3940    1.6390    0.0000 N   0  0  0  0  0  0  0  0  0  0  0  0
   -1.8300    3.0740    0.0000 C   0  0  0  0  0  0  0  0  0  0  0  0
   -0.9260    4.2710    0.0000 O   0  0  0  0  0  0  0  0  0  0  0  0
   -3.3300    3.1030    0.0000 O   0  0  0  0  0  0  0  0  0  0  0  0
    0.0230    1.1480    0.0000 C   0  0  0  0  0  0  0  0  0  0  0  0
    0.3070   -0.3250    0.0000 C   0  0  0  0  0  0  0  0  0  0  0  0
    1.7250   -0.8150    0.0000 C   0  0  0  0  0  0  0  0  0  0  0  0
    2.8580    0.1670    0.0000 C   0  0  0  0  0  0  0  0  0  0  0  0
    4.2760   -0.3230    0.0000 N   0  0  0  0  0  0  0  0  0  0  0  0
    4.5600   -1.7960    0.0000 C   0  0  0  0  0  0  0  0  0  0  0  0
    5.9770   -2.2870    0.0000 C   0  0  0  0  0  0  0  0  0  0  0  0
    7.1110   -1.3050    0.0000 S   0  0  0  0  0  0  0  0  0  0  0  0
    6.8270    0.1680    0.0000 C   0  0  0  0  0  0  0  0  0  0  0  0
    5.4090    0.6590    0.0000 C   0  0  0  0  0  0  0  0  0  0  0  0
    2.5740    1.6400    0.0000 C   0  0  0  0  0  0  0  0  0  0  0  0
    3.7080    2.6220    0.0000 F   0  0  0  0  0  0  0  0  0  0  0  0
    1.1570    2.1310    0.0000 C   0  0  0  0  0  0  0  0  0  0  0  0
   -8.4190   -3.4240    0.0000 H   0  0  0  0  0  0  0  0  0  0  0  0
   -8.9290   -1.3650    0.0000 H   0  0  0  0  0  0  0  0  0  0  0  0
   -6.3600   -2.9140    0.0000 H   0  0  0  0  0  0  0  0  0  0  0  0
   -4.6450   -2.1970    0.0000 H   0  0  0  0  0  0  0  0  0  0  0  0
   -5.8800    1.1750    0.0000 H   0  0  0  0  0  0  0  0  0  0  0  0
   -3.9680   -0.0910    0.0000 H   0  0  0  0  0  0  0  0  0  0  0  0
   -5.1790    2.3210    0.0000 H   0  0  0  0  0  0  0  0  0  0  0  0
   -1.6420   -0.3530    0.0000 H   0  0  0  0  0  0  0  0  0  0  0  0
   -3.0940    0.1360    0.0000 H   0  0  0  0  0  0  0  0  0  0  0  0
   -0.8260   -1.3070    0.0000 H   0  0  0  0  0  0  0  0  0  0  0  0
    2.0090   -2.2880    0.0000 H   0  0  0  0  0  0  0  0  0  0  0  0
    4.3230   -3.2780    0.0000 H   0  0  0  0  0  0  0  0  0  0  0  0
    3.0600   -1.8200    0.0000 H   0  0  0  0  0  0  0  0  0  0  0  0
    7.1410   -3.2330    0.0000 H   0  0  0  0  0  0  0  0  0  0  0  0
    5.2480   -3.5980    0.0000 H   0  0  0  0  0  0  0  0  0  0  0  0
    7.0640    1.6490    0.0000 H   0  0  0  0  0  0  0  0  0  0  0  0
    8.3270    0.1920    0.0000 H   0  0  0  0  0  0  0  0  0  0  0  0
    4.2450    1.6050    0.0000 H   0  0  0  0  0  0  0  0  0  0  0  0
    6.1390    1.9700    0.0000 H   0  0  0  0  0  0  0  0  0  0  0  0
    0.8730    3.6040    0.0000 H   0  0  0  0  0  0  0  0  0  0  0  0
  1  2  1  0  0  0  0
  1 25  1  0  0  0  0
  1 26  1  0  0  0  0
  1 27  1  0  0  0  0
  2  3  2  0  0  0  0
  2  4  1  0  0  0  0
  4  5  1  0  0  0  0
  4 28  1  0  0  0  0
  5  6  1  0  0  0  0
  5 29  1  0  0  0  0
  5 30  1  0  0  0  0
  6  7  1  0  0  0  0
  6 11  1  0  0  0  0
  6 31  1  1  0  0  0
  7  8  1  0  0  0  0
  7 32  1  0  0  0  0
  7 33  1  0  0  0  0
  8  9  1  0  0  0  0
  8 12  1  0  0  0  0
  9 10  2  0  0  0  0
  9 11  1  0  0  0  0
 12 13  2  0  0  0  0
 12 24  1  0  0  0  0
 13 14  1  0  0  0  0
 13 34  1  0  0  0  0
 14 15  2  0  0  0  0
 14 35  1  0  0  0  0
 15 16  1  0  0  0  0
 15 22  1  0  0  0  0
 16 17  1  0  0  0  0
 16 21  1  0  0  0  0
 17 18  1  0  0  0  0
 17 36  1  0  0  0  0
 17 37  1  0  0  0  0
 18 19  1  0  0  0  0
 18 38  1  0  0  0  0
 18 39  1  0  0  0  0
 19 20  1  0  0  0  0
 20 21  1  0  0  0  0
 20 40  1  0  0  0  0
 20 41  1  0  0  0  0
 21 42  1  0  0  0  0
 21 43  1  0  0  0  0
 22 23  1  0  0  0  0
 22 24  2  0  0  0  0
 24 44  1  0  0  0  0
M  END
$$$$
