2D_structures\o1_MMV1578558_2D.pdb
 OpenBabel02272422463D

 34 36  0  0  0  0  0  0  0  0999 V2000
    4.4970   -2.4290    0.0000 C   0  0  0  0  0  0  0  0  0  0  0  0
    3.5760   -1.2440    0.0000 C   0  0  0  0  0  0  0  0  0  0  0  0
    2.6560   -0.0600    0.0000 C   0  0  0  0  0  0  0  0  0  0  0  0
    3.0730    1.3810    0.0000 O   0  0  0  0  0  0  0  0  0  0  0  0
    1.8320    2.2230    0.0000 C   0  0  0  0  0  0  0  0  0  0  0  0
    1.6270    3.7090    0.0000 C   0  0  0  0  0  0  0  0  0  0  0  0
    0.2370    4.2740    0.0000 C   0  0  0  0  0  0  0  0  0  0  0  0
   -0.9470    3.3540    0.0000 C   0  0  0  0  0  0  0  0  0  0  0  0
   -0.7420    1.8680    0.0000 C   0  0  0  0  0  0  0  0  0  0  0  0
    0.6470    1.3020    0.0000 C   0  0  0  0  0  0  0  0  0  0  0  0
    1.1570   -0.1080    0.0000 C   0  0  0  0  0  0  0  0  0  0  0  0
    0.3150   -1.3500    0.0000 C   0  0  0  0  0  0  0  0  0  0  0  0
    0.9690   -2.7000    0.0000 O   0  0  0  0  0  0  0  0  0  0  0  0
   -1.1810   -1.2410    0.0000 C   0  0  0  0  0  0  0  0  0  0  0  0
   -1.8360    0.1090    0.0000 C   0  0  0  0  0  0  0  0  0  0  0  0
   -3.3320    0.2170    0.0000 C   0  0  0  0  0  0  0  0  0  0  0  0
   -4.1740   -1.0240    0.0000 C   0  0  0  0  0  0  0  0  0  0  0  0
   -5.6700   -0.9160    0.0000 O   0  0  0  0  0  0  0  0  0  0  0  0
   -3.5200   -2.3740    0.0000 C   0  0  0  0  0  0  0  0  0  0  0  0
   -2.0230   -2.4830    0.0000 C   0  0  0  0  0  0  0  0  0  0  0  0
    5.4170   -3.6130    0.0000 H   0  0  0  0  0  0  0  0  0  0  0  0
    3.3120   -3.3490    0.0000 H   0  0  0  0  0  0  0  0  0  0  0  0
    5.6810   -1.5080    0.0000 H   0  0  0  0  0  0  0  0  0  0  0  0
    4.7610   -0.3240    0.0000 H   0  0  0  0  0  0  0  0  0  0  0  0
    2.3920   -2.1650    0.0000 H   0  0  0  0  0  0  0  0  0  0  0  0
    2.8110    4.6290    0.0000 H   0  0  0  0  0  0  0  0  0  0  0  0
    0.0320    5.7600    0.0000 H   0  0  0  0  0  0  0  0  0  0  0  0
   -2.3360    3.9190    0.0000 H   0  0  0  0  0  0  0  0  0  0  0  0
   -1.4410    1.3240    0.0000 H   0  0  0  0  0  0  0  0  0  0  0  0
   -1.5610    0.8570    0.0000 H   0  0  0  0  0  0  0  0  0  0  0  0
   -3.9860    1.5670    0.0000 H   0  0  0  0  0  0  0  0  0  0  0  0
   -6.5120   -2.1570    0.0000 H   0  0  0  0  0  0  0  0  0  0  0  0
   -4.3620   -3.6160    0.0000 H   0  0  0  0  0  0  0  0  0  0  0  0
   -1.3690   -3.8330    0.0000 H   0  0  0  0  0  0  0  0  0  0  0  0
  1  2  1  0  0  0  0
  1 21  1  0  0  0  0
  1 22  1  0  0  0  0
  1 23  1  0  0  0  0
  2  3  1  0  0  0  0
  2 24  1  0  0  0  0
  2 25  1  0  0  0  0
  3  4  1  0  0  0  0
  3 11  2  0  0  0  0
  4  5  1  0  0  0  0
  5  6  2  0  0  0  0
  5 10  1  0  0  0  0
  6  7  1  0  0  0  0
  6 26  1  0  0  0  0
  7  8  2  0  0  0  0
  7 27  1  0  0  0  0
  8  9  1  0  0  0  0
  8 28  1  0  0  0  0
  9 10  2  0  0  0  0
  9 29  1  0  0  0  0
 10 11  1  0  0  0  0
 11 12  1  0  0  0  0
 12 13  2  0  0  0  0
 12 14  1  0  0  0  0
 14 15  2  0  0  0  0
 14 20  1  0  0  0  0
 15 16  1  0  0  0  0
 15 30  1  0  0  0  0
 16 17  2  0  0  0  0
 16 31  1  0  0  0  0
 17 18  1  0  0  0  0
 17 19  1  0  0  0  0
 18 32  1  0  0  0  0
 19 20  2  0  0  0  0
 19 33  1  0  0  0  0
 20 34  1  0  0  0  0
M  END
$$$$
