2D_structures\o20_MMV001014_2D.pdb
 OpenBabel02272422463D

 45 47  0  0  0  0  0  0  0  0999 V2000
   -4.7440   -4.7420    0.0000 Cl  0  0  0  0  0  0  0  0  0  0  0  0
   -4.7780   -3.2420    0.0000 C   0  0  0  0  0  0  0  0  0  0  0  0
   -6.2770   -3.2760    0.0000 Cl  0  0  0  0  0  0  0  0  0  0  0  0
   -3.2780   -3.2080    0.0000 Cl  0  0  0  0  0  0  0  0  0  0  0  0
   -4.8120   -1.7430    0.0000 C   0  0  0  0  0  0  0  0  0  0  0  0
   -6.1270   -1.0220    0.0000 O   0  0  0  0  0  0  0  0  0  0  0  0
   -3.5300   -0.9630    0.0000 N   0  0  0  0  0  0  0  0  0  0  0  0
   -3.5640    0.5360    0.0000 C   0  0  0  0  0  0  0  0  0  0  0  0
   -4.8790    1.2570    0.0000 C   0  0  0  0  0  0  0  0  0  0  0  0
   -4.9130    2.7560    0.0000 C   0  0  0  0  0  0  0  0  0  0  0  0
   -3.6320    3.5350    0.0000 C   0  0  0  0  0  0  0  0  0  0  0  0
   -2.3160    2.8150    0.0000 C   0  0  0  0  0  0  0  0  0  0  0  0
   -2.2820    1.3150    0.0000 C   0  0  0  0  0  0  0  0  0  0  0  0
   -0.9660    0.5950    0.0000 N   0  0  0  0  0  0  0  0  0  0  0  0
   -0.9320   -0.9050    0.0000 C   0  0  0  0  0  0  0  0  0  0  0  0
    0.3830   -1.6250    0.0000 C   0  0  0  0  0  0  0  0  0  0  0  0
    1.6650   -0.8460    0.0000 N   0  0  0  0  0  0  0  0  0  0  0  0
    1.6310    0.6540    0.0000 C   0  0  0  0  0  0  0  0  0  0  0  0
    0.3150    1.3740    0.0000 C   0  0  0  0  0  0  0  0  0  0  0  0
    2.9810   -1.5660    0.0000 C   0  0  0  0  0  0  0  0  0  0  0  0
    3.0150   -3.0660    0.0000 O   0  0  0  0  0  0  0  0  0  0  0  0
    4.2620   -0.7870    0.0000 C   0  0  0  0  0  0  0  0  0  0  0  0
    5.5780   -1.5080    0.0000 C   0  0  0  0  0  0  0  0  0  0  0  0
    6.8600   -0.7280    0.0000 C   0  0  0  0  0  0  0  0  0  0  0  0
    6.8260    0.7710    0.0000 C   0  0  0  0  0  0  0  0  0  0  0  0
    5.5100    1.4920    0.0000 C   0  0  0  0  0  0  0  0  0  0  0  0
    4.2280    0.7120    0.0000 C   0  0  0  0  0  0  0  0  0  0  0  0
   -2.2140   -1.6840    0.0000 H   0  0  0  0  0  0  0  0  0  0  0  0
   -6.1610    0.4770    0.0000 H   0  0  0  0  0  0  0  0  0  0  0  0
   -6.2290    3.4770    0.0000 H   0  0  0  0  0  0  0  0  0  0  0  0
   -3.6660    5.0350    0.0000 H   0  0  0  0  0  0  0  0  0  0  0  0
   -1.0340    3.5940    0.0000 H   0  0  0  0  0  0  0  0  0  0  0  0
   -1.4130   -2.3250    0.0000 H   0  0  0  0  0  0  0  0  0  0  0  0
   -2.4150   -0.6780    0.0000 H   0  0  0  0  0  0  0  0  0  0  0  0
    1.3730   -2.7520    0.0000 H   0  0  0  0  0  0  0  0  0  0  0  0
   -0.5550   -2.7960    0.0000 H   0  0  0  0  0  0  0  0  0  0  0  0
    2.1120    2.0750    0.0000 H   0  0  0  0  0  0  0  0  0  0  0  0
    3.1140    0.4270    0.0000 H   0  0  0  0  0  0  0  0  0  0  0  0
   -0.6750    2.5010    0.0000 H   0  0  0  0  0  0  0  0  0  0  0  0
    1.2530    2.5450    0.0000 H   0  0  0  0  0  0  0  0  0  0  0  0
    5.6120   -3.0070    0.0000 H   0  0  0  0  0  0  0  0  0  0  0  0
    8.1750   -1.4490    0.0000 H   0  0  0  0  0  0  0  0  0  0  0  0
    8.1080    1.5500    0.0000 H   0  0  0  0  0  0  0  0  0  0  0  0
    5.4760    2.9910    0.0000 H   0  0  0  0  0  0  0  0  0  0  0  0
    2.9130    1.4330    0.0000 H   0  0  0  0  0  0  0  0  0  0  0  0
  1  2  1  0  0  0  0
  2  3  1  0  0  0  0
  2  4  1  0  0  0  0
  2  5  1  0  0  0  0
  5  6  2  0  0  0  0
  5  7  1  0  0  0  0
  7  8  1  0  0  0  0
  7 28  1  0  0  0  0
  8  9  2  0  0  0  0
  8 13  1  0  0  0  0
  9 10  1  0  0  0  0
  9 29  1  0  0  0  0
 10 11  2  0  0  0  0
 10 30  1  0  0  0  0
 11 12  1  0  0  0  0
 11 31  1  0  0  0  0
 12 13  2  0  0  0  0
 12 32  1  0  0  0  0
 13 14  1  0  0  0  0
 14 15  1  0  0  0  0
 14 19  1  0  0  0  0
 15 16  1  0  0  0  0
 15 33  1  0  0  0  0
 15 34  1  0  0  0  0
 16 17  1  0  0  0  0
 16 35  1  0  0  0  0
 16 36  1  0  0  0  0
 17 18  1  0  0  0  0
 17 20  1  0  0  0  0
 18 19  1  0  0  0  0
 18 37  1  0  0  0  0
 18 38  1  0  0  0  0
 19 39  1  0  0  0  0
 19 40  1  0  0  0  0
 20 21  2  0  0  0  0
 20 22  1  0  0  0  0
 22 23  2  0  0  0  0
 22 27  1  0  0  0  0
 23 24  1  0  0  0  0
 23 41  1  0  0  0  0
 24 25  2  0  0  0  0
 24 42  1  0  0  0  0
 25 26  1  0  0  0  0
 25 43  1  0  0  0  0
 26 27  2  0  0  0  0
 26 44  1  0  0  0  0
 27 45  1  0  0  0  0
M  END
$$$$
