2D_structures\o22_MMV687696_2D.pdb
 OpenBabel02272422463D

 67 71  0  0  0  0  0  0  0  0999 V2000
    7.9740    3.9870    0.0000 C   0  0  0  0  0  0  0  0  0  0  0  0
    8.1220    2.4950    0.0000 C   0  0  0  0  0  0  0  0  0  0  0  0
    8.2690    1.0020    0.0000 C   0  0  0  0  0  0  0  0  0  0  0  0
    9.5630    0.2440    0.0000 N   0  0  0  0  0  0  0  0  0  0  0  0
    9.2420   -1.2220    0.0000 C   0  0  0  0  0  0  0  0  0  0  0  0
   10.1160   -2.4410    0.0000 C   0  0  0  0  0  0  0  0  0  0  0  0
    9.4970   -3.8070    0.0000 C   0  0  0  0  0  0  0  0  0  0  0  0
    8.0040   -3.9540    0.0000 C   0  0  0  0  0  0  0  0  0  0  0  0
    7.3850   -5.3210    0.0000 Cl  0  0  0  0  0  0  0  0  0  0  0  0
    7.1300   -2.7350    0.0000 C   0  0  0  0  0  0  0  0  0  0  0  0
    7.7490   -1.3690    0.0000 N   0  0  0  0  0  0  0  0  0  0  0  0
    7.1480    0.0050    0.0000 C   0  0  0  0  0  0  0  0  0  0  0  0
    5.6830    0.3270    0.0000 C   0  0  0  0  0  0  0  0  0  0  0  0
    5.2280    1.7560    0.0000 O   0  0  0  0  0  0  0  0  0  0  0  0
    4.6720   -0.7820    0.0000 N   0  0  0  0  0  0  0  0  0  0  0  0
    3.2070   -0.4600    0.0000 C   0  0  0  0  0  0  0  0  0  0  0  0
    1.7410   -0.1390    0.0000 C   0  0  0  0  0  0  0  0  0  0  0  0
    1.2870    1.2900    0.0000 C   0  0  0  0  0  0  0  0  0  0  0  0
   -0.1780    1.6110    0.0000 C   0  0  0  0  0  0  0  0  0  0  0  0
   -1.1890    0.5030    0.0000 C   0  0  0  0  0  0  0  0  0  0  0  0
   -0.7350   -0.9260    0.0000 C   0  0  0  0  0  0  0  0  0  0  0  0
    0.7310   -1.2480    0.0000 C   0  0  0  0  0  0  0  0  0  0  0  0
   -2.6540    0.8240    0.0000 N   0  0  0  0  0  0  0  0  0  0  0  0
   -3.1090    2.2540    0.0000 C   0  0  0  0  0  0  0  0  0  0  0  0
   -4.5740    2.5750    0.0000 C   0  0  0  0  0  0  0  0  0  0  0  0
   -5.5850    1.4670    0.0000 C   0  0  0  0  0  0  0  0  0  0  0  0
   -5.1300    0.0370    0.0000 C   0  0  0  0  0  0  0  0  0  0  0  0
   -3.6650   -0.2840    0.0000 C   0  0  0  0  0  0  0  0  0  0  0  0
   -6.9140    0.7710    0.0000 C   0  0  0  0  0  0  0  0  0  0  0  0
   -8.1810    1.5740    0.0000 C   0  0  0  0  0  0  0  0  0  0  0  0
   -9.5090    0.8780    0.0000 C   0  0  0  0  0  0  0  0  0  0  0  0
   -9.5710   -0.6200    0.0000 C   0  0  0  0  0  0  0  0  0  0  0  0
  -10.9000   -1.3160    0.0000 O   0  0  0  0  0  0  0  0  0  0  0  0
  -10.9620   -2.8150    0.0000 C   0  0  0  0  0  0  0  0  0  0  0  0
  -11.0240   -4.3140    0.0000 F   0  0  0  0  0  0  0  0  0  0  0  0
  -12.4610   -2.7530    0.0000 F   0  0  0  0  0  0  0  0  0  0  0  0
   -9.4630   -2.8770    0.0000 F   0  0  0  0  0  0  0  0  0  0  0  0
   -8.3040   -1.4230    0.0000 C   0  0  0  0  0  0  0  0  0  0  0  0
   -6.9750   -0.7280    0.0000 C   0  0  0  0  0  0  0  0  0  0  0  0
    7.8270    5.4800    0.0000 H   0  0  0  0  0  0  0  0  0  0  0  0
    9.4670    4.1350    0.0000 H   0  0  0  0  0  0  0  0  0  0  0  0
    6.4820    3.8400    0.0000 H   0  0  0  0  0  0  0  0  0  0  0  0
    6.6290    2.3470    0.0000 H   0  0  0  0  0  0  0  0  0  0  0  0
    9.6140    2.6420    0.0000 H   0  0  0  0  0  0  0  0  0  0  0  0
   11.6090   -2.2930    0.0000 H   0  0  0  0  0  0  0  0  0  0  0  0
   10.3710   -5.0260    0.0000 H   0  0  0  0  0  0  0  0  0  0  0  0
    5.6670   -3.0630    0.0000 H   0  0  0  0  0  0  0  0  0  0  0  0
    4.9490   -2.2560    0.0000 H   0  0  0  0  0  0  0  0  0  0  0  0
    3.5280    1.0050    0.0000 H   0  0  0  0  0  0  0  0  0  0  0  0
    2.8850   -1.9260    0.0000 H   0  0  0  0  0  0  0  0  0  0  0  0
    2.2980    2.3990    0.0000 H   0  0  0  0  0  0  0  0  0  0  0  0
   -0.6330    3.0410    0.0000 H   0  0  0  0  0  0  0  0  0  0  0  0
   -1.7450   -2.0350    0.0000 H   0  0  0  0  0  0  0  0  0  0  0  0
    1.1850   -2.6770    0.0000 H   0  0  0  0  0  0  0  0  0  0  0  0
   -3.0470    3.7530    0.0000 H   0  0  0  0  0  0  0  0  0  0  0  0
   -1.6220    2.4530    0.0000 H   0  0  0  0  0  0  0  0  0  0  0  0
   -5.8410    3.3780    0.0000 H   0  0  0  0  0  0  0  0  0  0  0  0
   -4.0030    3.9620    0.0000 H   0  0  0  0  0  0  0  0  0  0  0  0
   -6.5010    2.6550    0.0000 H   0  0  0  0  0  0  0  0  0  0  0  0
   -5.0320   -1.1740    0.0000 H   0  0  0  0  0  0  0  0  0  0  0  0
   -6.1470   -0.3660    0.0000 H   0  0  0  0  0  0  0  0  0  0  0  0
   -2.3980   -1.0870    0.0000 H   0  0  0  0  0  0  0  0  0  0  0  0
   -4.1270   -1.4080    0.0000 H   0  0  0  0  0  0  0  0  0  0  0  0
   -8.1190    3.0730    0.0000 H   0  0  0  0  0  0  0  0  0  0  0  0
  -10.7760    1.6810    0.0000 H   0  0  0  0  0  0  0  0  0  0  0  0
   -8.3660   -2.9220    0.0000 H   0  0  0  0  0  0  0  0  0  0  0  0
   -5.8160   -1.6790    0.0000 H   0  0  0  0  0  0  0  0  0  0  0  0
  1  2  1  0  0  0  0
  1 40  1  0  0  0  0
  1 41  1  0  0  0  0
  1 42  1  0  0  0  0
  2  3  1  0  0  0  0
  2 43  1  0  0  0  0
  2 44  1  0  0  0  0
  3  4  1  0  0  0  0
  3 12  2  0  0  0  0
  4  5  2  0  0  0  0
  5  6  1  0  0  0  0
  5 11  1  0  0  0  0
  6  7  2  0  0  0  0
  6 45  1  0  0  0  0
  7  8  1  0  0  0  0
  7 46  1  0  0  0  0
  8  9  1  0  0  0  0
  8 10  2  0  0  0  0
 10 11  1  0  0  0  0
 10 47  1  0  0  0  0
 11 12  1  0  0  0  0
 12 13  1  0  0  0  0
 13 14  2  0  0  0  0
 13 15  1  0  0  0  0
 15 16  1  0  0  0  0
 15 48  1  0  0  0  0
 16 17  1  0  0  0  0
 16 49  1  0  0  0  0
 16 50  1  0  0  0  0
 17 18  2  0  0  0  0
 17 22  1  0  0  0  0
 18 19  1  0  0  0  0
 18 51  1  0  0  0  0
 19 20  2  0  0  0  0
 19 52  1  0  0  0  0
 20 21  1  0  0  0  0
 20 23  1  0  0  0  0
 21 22  2  0  0  0  0
 21 53  1  0  0  0  0
 22 54  1  0  0  0  0
 23 24  1  0  0  0  0
 23 28  1  0  0  0  0
 24 25  1  0  0  0  0
 24 55  1  0  0  0  0
 24 56  1  0  0  0  0
 25 26  1  0  0  0  0
 25 57  1  0  0  0  0
 25 58  1  0  0  0  0
 26 27  1  0  0  0  0
 26 29  1  0  0  0  0
 26 59  1  0  0  0  0
 27 28  1  0  0  0  0
 27 60  1  0  0  0  0
 27 61  1  0  0  0  0
 28 62  1  0  0  0  0
 28 63  1  0  0  0  0
 29 30  2  0  0  0  0
 29 39  1  0  0  0  0
 30 31  1  0  0  0  0
 30 64  1  0  0  0  0
 31 32  2  0  0  0  0
 31 65  1  0  0  0  0
 32 33  1  0  0  0  0
 32 38  1  0  0  0  0
 33 34  1  0  0  0  0
 34 35  1  0  0  0  0
 34 36  1  0  0  0  0
 34 37  1  0  0  0  0
 38 39  2  0  0  0  0
 38 66  1  0  0  0  0
 39 67  1  0  0  0  0
M  END
$$$$
