2D_structures\o23_MMV011565_2D.pdb
 OpenBabel02272422463D

 32 34  0  0  0  0  0  0  0  0999 V2000
   -6.0500    0.5100    0.0000 C   0  0  0  0  0  0  0  0  0  0  0  0
   -5.3850   -0.8350    0.0000 O   0  0  0  0  0  0  0  0  0  0  0  0
   -3.8880   -0.9310    0.0000 C   0  0  0  0  0  0  0  0  0  0  0  0
   -3.2220   -2.2750    0.0000 C   0  0  0  0  0  0  0  0  0  0  0  0
   -1.7250   -2.3710    0.0000 C   0  0  0  0  0  0  0  0  0  0  0  0
   -0.8940   -1.1220    0.0000 C   0  0  0  0  0  0  0  0  0  0  0  0
    0.6030   -1.2180    0.0000 N   0  0  0  0  0  0  0  0  0  0  0  0
    1.4350    0.0300    0.0000 C   0  0  0  0  0  0  0  0  0  0  0  0
    0.7690    1.3740    0.0000 C   0  0  0  0  0  0  0  0  0  0  0  0
   -0.7280    1.4700    0.0000 C   0  0  0  0  0  0  0  0  0  0  0  0
   -1.3930    2.8150    0.0000 O   0  0  0  0  0  0  0  0  0  0  0  0
   -1.5590    0.2220    0.0000 C   0  0  0  0  0  0  0  0  0  0  0  0
   -3.0560    0.3180    0.0000 C   0  0  0  0  0  0  0  0  0  0  0  0
    2.9310   -0.0660    0.0000 C   0  0  0  0  0  0  0  0  0  0  0  0
    3.5970   -1.4100    0.0000 C   0  0  0  0  0  0  0  0  0  0  0  0
    5.0940   -1.5060    0.0000 C   0  0  0  0  0  0  0  0  0  0  0  0
    5.9250   -0.2580    0.0000 C   0  0  0  0  0  0  0  0  0  0  0  0
    5.2600    1.0870    0.0000 C   0  0  0  0  0  0  0  0  0  0  0  0
    3.7630    1.1830    0.0000 C   0  0  0  0  0  0  0  0  0  0  0  0
   -6.7160    1.8540    0.0000 H   0  0  0  0  0  0  0  0  0  0  0  0
   -7.3940   -0.1560    0.0000 H   0  0  0  0  0  0  0  0  0  0  0  0
   -4.7060    1.1750    0.0000 H   0  0  0  0  0  0  0  0  0  0  0  0
   -4.0540   -3.5230    0.0000 H   0  0  0  0  0  0  0  0  0  0  0  0
   -1.0600   -3.7150    0.0000 H   0  0  0  0  0  0  0  0  0  0  0  0
    1.6010    2.6230    0.0000 H   0  0  0  0  0  0  0  0  0  0  0  0
   -0.5620    4.0630    0.0000 H   0  0  0  0  0  0  0  0  0  0  0  0
   -3.7220    1.6620    0.0000 H   0  0  0  0  0  0  0  0  0  0  0  0
    2.7650   -2.6590    0.0000 H   0  0  0  0  0  0  0  0  0  0  0  0
    5.7590   -2.8500    0.0000 H   0  0  0  0  0  0  0  0  0  0  0  0
    7.4220   -0.3530    0.0000 H   0  0  0  0  0  0  0  0  0  0  0  0
    6.0910    2.3350    0.0000 H   0  0  0  0  0  0  0  0  0  0  0  0
    3.0980    2.5270    0.0000 H   0  0  0  0  0  0  0  0  0  0  0  0
  1  2  1  0  0  0  0
  1 20  1  0  0  0  0
  1 21  1  0  0  0  0
  1 22  1  0  0  0  0
  2  3  1  0  0  0  0
  3  4  2  0  0  0  0
  3 13  1  0  0  0  0
  4  5  1  0  0  0  0
  4 23  1  0  0  0  0
  5  6  2  0  0  0  0
  5 24  1  0  0  0  0
  6  7  1  0  0  0  0
  6 12  1  0  0  0  0
  7  8  2  0  0  0  0
  8  9  1  0  0  0  0
  8 14  1  0  0  0  0
  9 10  2  0  0  0  0
  9 25  1  0  0  0  0
 10 11  1  0  0  0  0
 10 12  1  0  0  0  0
 11 26  1  0  0  0  0
 12 13  2  0  0  0  0
 13 27  1  0  0  0  0
 14 15  2  0  0  0  0
 14 19  1  0  0  0  0
 15 16  1  0  0  0  0
 15 28  1  0  0  0  0
 16 17  2  0  0  0  0
 16 29  1  0  0  0  0
 17 18  1  0  0  0  0
 17 30  1  0  0  0  0
 18 19  2  0  0  0  0
 18 31  1  0  0  0  0
 19 32  1  0  0  0  0
M  END
$$$$
