2D_structures\o25_MMV1578576_2D.pdb
 OpenBabel02272422463D

 32 34  0  0  0  0  0  0  0  0999 V2000
    3.3110    2.3520    0.0000 F   0  0  0  0  0  0  0  0  0  0  0  0
    4.2360    1.1710    0.0000 C   0  0  0  0  0  0  0  0  0  0  0  0
    5.7210    1.3810    0.0000 C   0  0  0  0  0  0  0  0  0  0  0  0
    6.6450    0.1990    0.0000 C   0  0  0  0  0  0  0  0  0  0  0  0
    6.0840   -1.1920    0.0000 C   0  0  0  0  0  0  0  0  0  0  0  0
    4.5990   -1.4020    0.0000 C   0  0  0  0  0  0  0  0  0  0  0  0
    3.6750   -0.2200    0.0000 C   0  0  0  0  0  0  0  0  0  0  0  0
    2.1890   -0.4300    0.0000 C   0  0  0  0  0  0  0  0  0  0  0  0
    0.7040   -0.6400    0.0000 C   0  0  0  0  0  0  0  0  0  0  0  0
    0.1430   -2.0310    0.0000 O   0  0  0  0  0  0  0  0  0  0  0  0
   -0.2200    0.5420    0.0000 N   0  0  0  0  0  0  0  0  0  0  0  0
   -1.7050    0.3320    0.0000 C   0  0  0  0  0  0  0  0  0  0  0  0
   -2.4090   -0.9930    0.0000 N   0  0  0  0  0  0  0  0  0  0  0  0
   -3.8860   -0.7340    0.0000 C   0  0  0  0  0  0  0  0  0  0  0  0
   -5.0670   -1.6580    0.0000 C   0  0  0  0  0  0  0  0  0  0  0  0
   -6.4590   -1.0970    0.0000 C   0  0  0  0  0  0  0  0  0  0  0  0
   -6.6680    0.3880    0.0000 C   0  0  0  0  0  0  0  0  0  0  0  0
   -5.4870    1.3130    0.0000 C   0  0  0  0  0  0  0  0  0  0  0  0
   -4.0960    0.7520    0.0000 C   0  0  0  0  0  0  0  0  0  0  0  0
   -2.7480    1.4100    0.0000 N   0  0  0  0  0  0  0  0  0  0  0  0
    6.2820    2.7720    0.0000 H   0  0  0  0  0  0  0  0  0  0  0  0
    8.1310    0.4090    0.0000 H   0  0  0  0  0  0  0  0  0  0  0  0
    7.0090   -2.3730    0.0000 H   0  0  0  0  0  0  0  0  0  0  0  0
    4.0380   -2.7930    0.0000 H   0  0  0  0  0  0  0  0  0  0  0  0
    1.9800    1.0550    0.0000 H   0  0  0  0  0  0  0  0  0  0  0  0
    2.3990   -1.9150    0.0000 H   0  0  0  0  0  0  0  0  0  0  0  0
    0.3410    1.9330    0.0000 H   0  0  0  0  0  0  0  0  0  0  0  0
   -4.8580   -3.1430    0.0000 H   0  0  0  0  0  0  0  0  0  0  0  0
   -7.6400   -2.0210    0.0000 H   0  0  0  0  0  0  0  0  0  0  0  0
   -8.0590    0.9490    0.0000 H   0  0  0  0  0  0  0  0  0  0  0  0
   -5.6970    2.7980    0.0000 H   0  0  0  0  0  0  0  0  0  0  0  0
   -2.4890    2.8870    0.0000 H   0  0  0  0  0  0  0  0  0  0  0  0
  1  2  1  0  0  0  0
  2  3  2  0  0  0  0
  2  7  1  0  0  0  0
  3  4  1  0  0  0  0
  3 21  1  0  0  0  0
  4  5  2  0  0  0  0
  4 22  1  0  0  0  0
  5  6  1  0  0  0  0
  5 23  1  0  0  0  0
  6  7  2  0  0  0  0
  6 24  1  0  0  0  0
  7  8  1  0  0  0  0
  8  9  1  0  0  0  0
  8 25  1  0  0  0  0
  8 26  1  0  0  0  0
  9 10  2  0  0  0  0
  9 11  1  0  0  0  0
 11 12  1  0  0  0  0
 11 27  1  0  0  0  0
 12 13  2  0  0  0  0
 12 20  1  0  0  0  0
 13 14  1  0  0  0  0
 14 15  2  0  0  0  0
 14 19  1  0  0  0  0
 15 16  1  0  0  0  0
 15 28  1  0  0  0  0
 16 17  2  0  0  0  0
 16 29  1  0  0  0  0
 17 18  1  0  0  0  0
 17 30  1  0  0  0  0
 18 19  2  0  0  0  0
 18 31  1  0  0  0  0
 19 20  1  0  0  0  0
 20 32  1  0  0  0  0
M  END
$$$$
