2D_structures\o26_MMV1578562_2D.pdb
 OpenBabel02272422463D

 43 45  0  0  0  0  0  0  0  0999 V2000
    3.8460    0.3480    0.0000 O   0  0  0  0  0  0  0  0  0  0  0  0
    3.2070   -1.0090    0.0000 S   0  0  0  0  0  0  0  0  0  0  0  0
    2.5680   -2.3660    0.0000 O   0  0  0  0  0  0  0  0  0  0  0  0
    4.5640   -1.6480    0.0000 N   0  0  0  0  0  0  0  0  0  0  0  0
    5.7960   -0.7920    0.0000 C   0  0  0  0  0  0  0  0  0  0  0  0
    7.1530   -1.4310    0.0000 C   0  0  0  0  0  0  0  0  0  0  0  0
    8.3850   -0.5750    0.0000 C   0  0  0  0  0  0  0  0  0  0  0  0
    8.2600    0.9190    0.0000 C   0  0  0  0  0  0  0  0  0  0  0  0
    6.9030    1.5580    0.0000 C   0  0  0  0  0  0  0  0  0  0  0  0
    5.6710    0.7020    0.0000 C   0  0  0  0  0  0  0  0  0  0  0  0
    1.8500   -0.3700    0.0000 C   0  0  0  0  0  0  0  0  0  0  0  0
    1.7250    1.1250    0.0000 C   0  0  0  0  0  0  0  0  0  0  0  0
    0.3680    1.7640    0.0000 C   0  0  0  0  0  0  0  0  0  0  0  0
   -0.8640    0.9080    0.0000 C   0  0  0  0  0  0  0  0  0  0  0  0
   -2.2210    1.5470    0.0000 N   0  0  0  0  0  0  0  0  0  0  0  0
   -3.4530    0.6910    0.0000 C   0  0  0  0  0  0  0  0  0  0  0  0
   -3.3280   -0.8040    0.0000 S   0  0  0  0  0  0  0  0  0  0  0  0
   -4.8100    1.3300    0.0000 N   0  0  0  0  0  0  0  0  0  0  0  0
   -6.0420    0.4740    0.0000 C   0  0  0  0  0  0  0  0  0  0  0  0
   -7.3990    1.1130    0.0000 C   0  0  0  0  0  0  0  0  0  0  0  0
   -8.6310    0.2570    0.0000 C   0  0  0  0  0  0  0  0  0  0  0  0
   -8.5060   -1.2370    0.0000 C   0  0  0  0  0  0  0  0  0  0  0  0
   -7.1490   -1.8760    0.0000 C   0  0  0  0  0  0  0  0  0  0  0  0
   -5.9170   -1.0210    0.0000 C   0  0  0  0  0  0  0  0  0  0  0  0
   -0.7390   -0.5870    0.0000 C   0  0  0  0  0  0  0  0  0  0  0  0
    0.6180   -1.2260    0.0000 C   0  0  0  0  0  0  0  0  0  0  0  0
    4.6890   -3.1430    0.0000 H   0  0  0  0  0  0  0  0  0  0  0  0
    7.2780   -2.9260    0.0000 H   0  0  0  0  0  0  0  0  0  0  0  0
    9.7420   -1.2140    0.0000 H   0  0  0  0  0  0  0  0  0  0  0  0
    9.4920    1.7750    0.0000 H   0  0  0  0  0  0  0  0  0  0  0  0
    6.7780    3.0530    0.0000 H   0  0  0  0  0  0  0  0  0  0  0  0
    4.3140    1.3410    0.0000 H   0  0  0  0  0  0  0  0  0  0  0  0
    2.9570    1.9800    0.0000 H   0  0  0  0  0  0  0  0  0  0  0  0
    0.2420    3.2580    0.0000 H   0  0  0  0  0  0  0  0  0  0  0  0
   -2.3470    3.0420    0.0000 H   0  0  0  0  0  0  0  0  0  0  0  0
   -4.9360    2.8250    0.0000 H   0  0  0  0  0  0  0  0  0  0  0  0
   -7.5250    2.6080    0.0000 H   0  0  0  0  0  0  0  0  0  0  0  0
   -9.9880    0.8960    0.0000 H   0  0  0  0  0  0  0  0  0  0  0  0
   -9.7380   -2.0930    0.0000 H   0  0  0  0  0  0  0  0  0  0  0  0
   -7.0240   -3.3710    0.0000 H   0  0  0  0  0  0  0  0  0  0  0  0
   -4.5600   -1.6600    0.0000 H   0  0  0  0  0  0  0  0  0  0  0  0
   -1.9710   -1.4430    0.0000 H   0  0  0  0  0  0  0  0  0  0  0  0
    0.7430   -2.7210    0.0000 H   0  0  0  0  0  0  0  0  0  0  0  0
  1  2  2  0  0  0  0
  2  3  2  0  0  0  0
  2  4  1  0  0  0  0
  2 11  1  0  0  0  0
  4  5  1  0  0  0  0
  4 27  1  0  0  0  0
  5  6  2  0  0  0  0
  5 10  1  0  0  0  0
  6  7  1  0  0  0  0
  6 28  1  0  0  0  0
  7  8  2  0  0  0  0
  7 29  1  0  0  0  0
  8  9  1  0  0  0  0
  8 30  1  0  0  0  0
  9 10  2  0  0  0  0
  9 31  1  0  0  0  0
 10 32  1  0  0  0  0
 11 12  2  0  0  0  0
 11 26  1  0  0  0  0
 12 13  1  0  0  0  0
 12 33  1  0  0  0  0
 13 14  2  0  0  0  0
 13 34  1  0  0  0  0
 14 15  1  0  0  0  0
 14 25  1  0  0  0  0
 15 16  1  0  0  0  0
 15 35  1  0  0  0  0
 16 17  2  0  0  0  0
 16 18  1  0  0  0  0
 18 19  1  0  0  0  0
 18 36  1  0  0  0  0
 19 20  2  0  0  0  0
 19 24  1  0  0  0  0
 20 21  1  0  0  0  0
 20 37  1  0  0  0  0
 21 22  2  0  0  0  0
 21 38  1  0  0  0  0
 22 23  1  0  0  0  0
 22 39  1  0  0  0  0
 23 24  2  0  0  0  0
 23 40  1  0  0  0  0
 24 41  1  0  0  0  0
 25 26  2  0  0  0  0
 25 42  1  0  0  0  0
 26 43  1  0  0  0  0
M  END
$$$$
