2D_structures\o29_MMV1634402_2D.pdb
 OpenBabel02272422463D

116120  0  0  0  0  0  0  0  0999 V2000
    8.9620    7.7380    0.0000 F   0  0  0  0  0  0  0  0  0  0  0  0
    8.2500    6.4170    0.0000 C   0  0  0  0  0  0  0  0  0  0  0  0
    6.9300    7.1300    0.0000 F   0  0  0  0  0  0  0  0  0  0  0  0
    9.5700    5.7050    0.0000 F   0  0  0  0  0  0  0  0  0  0  0  0
    7.5380    5.0970    0.0000 C   0  0  0  0  0  0  0  0  0  0  0  0
    6.0390    5.0540    0.0000 C   0  0  0  0  0  0  0  0  0  0  0  0
    5.3260    3.7340    0.0000 C   0  0  0  0  0  0  0  0  0  0  0  0
    6.1140    2.4570    0.0000 C   0  0  0  0  0  0  0  0  0  0  0  0
    5.4010    1.1370    0.0000 O   0  0  0  0  0  0  0  0  0  0  0  0
    6.1880   -0.1400    0.0000 C   0  0  0  0  0  0  0  0  0  0  0  0
    7.2240   -1.2250    0.0000 C   0  0  0  0  0  0  0  0  0  0  0  0
    6.5120   -2.5450    0.0000 N   0  0  0  0  0  0  0  0  0  0  0  0
    5.0360   -2.2760    0.0000 C   0  0  0  0  0  0  0  0  0  0  0  0
    4.8360   -0.7890    0.0000 C   0  0  0  0  0  0  0  0  0  0  0  0
    7.6130    2.5000    0.0000 C   0  0  0  0  0  0  0  0  0  0  0  0
    8.3250    3.8200    0.0000 C   0  0  0  0  0  0  0  0  0  0  0  0
    8.4000    1.2230    0.0000 N   0  0  0  0  0  0  0  0  0  0  0  0
    9.8990    1.2670    0.0000 C   0  0  0  0  0  0  0  0  0  0  0  0
   10.6120    2.5870    0.0000 O   0  0  0  0  0  0  0  0  0  0  0  0
   10.6870   -0.0100    0.0000 C   0  0  0  0  0  0  0  0  0  0  0  0
   11.4740   -1.2870    0.0000 C   0  0  0  0  0  0  0  0  0  0  0  0
   12.2610   -2.5640    0.0000 C   0  0  0  0  0  0  0  0  0  0  0  0
   13.0480   -3.8410    0.0000 C   0  0  0  0  0  0  0  0  0  0  0  0
   13.8350   -5.1180    0.0000 N   0  0  0  0  0  0  0  0  0  0  0  0
   13.1230   -6.4380    0.0000 C   0  0  0  0  0  0  0  0  0  0  0  0
   13.9100   -7.7150    0.0000 N   0  0  0  0  0  0  0  0  0  0  0  0
   11.6240   -6.4810    0.0000 N   0  0  0  0  0  0  0  0  0  0  0  0
    3.8270    3.6910    0.0000 N   0  0  0  0  0  0  0  0  0  0  0  0
    3.0400    4.9670    0.0000 C   0  0  0  0  0  0  0  0  0  0  0  0
    3.7520    6.2880    0.0000 O   0  0  0  0  0  0  0  0  0  0  0  0
    1.5400    4.9240    0.0000 C   0  0  0  0  0  0  0  0  0  0  0  0
    0.7530    6.2010    0.0000 N   0  0  0  0  0  4  0  0  0  0  0  0
   -0.7460    6.1580    0.0000 C   0  0  0  0  0  0  0  0  0  0  0  0
   -1.4580    4.8380    0.0000 N   0  0  0  0  0  0  0  0  0  0  0  0
   -0.6710    3.5610    0.0000 C   0  0  0  0  0  0  0  0  0  0  0  0
    0.8280    3.6040    0.0000 C   0  0  0  0  0  0  0  0  0  0  0  0
   -1.3830    2.2410    0.0000 C   0  0  0  0  0  0  0  0  0  0  0  0
   -0.5960    0.9640    0.0000 O   0  0  0  0  0  0  0  0  0  0  0  0
   -2.8830    2.1970    0.0000 N   0  0  0  0  0  0  0  0  0  0  0  0
   -3.5950    0.8770    0.0000 C   0  0  0  0  0  0  0  0  0  0  0  0
   -5.0940    0.8340    0.0000 C   0  0  0  0  0  0  0  0  0  0  0  0
   -5.8810    2.1110    0.0000 O   0  0  0  0  0  0  0  0  0  0  0  0
   -7.3810    2.0680    0.0000 C   0  0  0  0  0  0  0  0  0  0  0  0
   -8.8380    1.7140    0.0000 C   0  0  0  0  0  0  0  0  0  0  0  0
   -9.6260    2.9900    0.0000 N   0  0  0  0  0  0  0  0  0  0  0  0
   -8.6540    4.1340    0.0000 C   0  0  0  0  0  0  0  0  0  0  0  0
   -7.2670    3.5630    0.0000 C   0  0  0  0  0  0  0  0  0  0  0  0
   -5.8070   -0.4860    0.0000 C   0  0  0  0  0  0  0  0  0  0  0  0
   -5.0190   -1.7630    0.0000 C   0  0  0  0  0  0  0  0  0  0  0  0
   -3.5200   -1.7200    0.0000 C   0  0  0  0  0  0  0  0  0  0  0  0
   -2.8080   -0.4000    0.0000 C   0  0  0  0  0  0  0  0  0  0  0  0
   -2.7330   -2.9970    0.0000 C   0  0  0  0  0  0  0  0  0  0  0  0
   -1.9460   -4.2730    0.0000 F   0  0  0  0  0  0  0  0  0  0  0  0
   -1.4560   -2.2090    0.0000 F   0  0  0  0  0  0  0  0  0  0  0  0
   -4.0100   -3.7840    0.0000 F   0  0  0  0  0  0  0  0  0  0  0  0
   -7.3060   -0.5290    0.0000 N   0  0  0  0  0  0  0  0  0  0  0  0
   -8.0180   -1.8500    0.0000 C   0  0  0  0  0  0  0  0  0  0  0  0
   -7.2310   -3.1260    0.0000 O   0  0  0  0  0  0  0  0  0  0  0  0
   -9.5170   -1.8930    0.0000 C   0  0  0  0  0  0  0  0  0  0  0  0
  -11.0170   -1.9360    0.0000 C   0  0  0  0  0  0  0  0  0  0  0  0
  -12.5160   -1.9790    0.0000 C   0  0  0  0  0  0  0  0  0  0  0  0
  -14.0160   -2.0230    0.0000 C   0  0  0  0  0  0  0  0  0  0  0  0
  -15.5150   -2.0660    0.0000 N   0  0  0  0  0  0  0  0  0  0  0  0
  -16.2270   -3.3860    0.0000 C   0  0  0  0  0  0  0  0  0  0  0  0
  -17.7270   -3.4290    0.0000 N   0  0  0  0  0  0  0  0  0  0  0  0
  -15.4400   -4.6630    0.0000 N   0  0  0  0  0  0  0  0  0  0  0  0
    5.2510    6.3310    0.0000 H   0  0  0  0  0  0  0  0  0  0  0  0
    6.8900    0.4010    0.0000 H   0  0  0  0  0  0  0  0  0  0  0  0
    8.0480    0.0280    0.0000 H   0  0  0  0  0  0  0  0  0  0  0  0
    8.4620   -2.0720    0.0000 H   0  0  0  0  0  0  0  0  0  0  0  0
    7.1610   -3.8980    0.0000 H   0  0  0  0  0  0  0  0  0  0  0  0
    4.9220   -3.7720    0.0000 H   0  0  0  0  0  0  0  0  0  0  0  0
    3.5370   -2.3190    0.0000 H   0  0  0  0  0  0  0  0  0  0  0  0
    3.3790   -1.1430    0.0000 H   0  0  0  0  0  0  0  0  0  0  0  0
    4.3320    0.6230    0.0000 H   0  0  0  0  0  0  0  0  0  0  0  0
    9.8250    3.8640    0.0000 H   0  0  0  0  0  0  0  0  0  0  0  0
    7.9390    0.5730    0.0000 H   0  0  0  0  0  0  0  0  0  0  0  0
   11.9630    0.7770    0.0000 H   0  0  0  0  0  0  0  0  0  0  0  0
    9.4100   -0.7970    0.0000 H   0  0  0  0  0  0  0  0  0  0  0  0
   12.7510   -0.5000    0.0000 H   0  0  0  0  0  0  0  0  0  0  0  0
   10.1970   -2.0740    0.0000 H   0  0  0  0  0  0  0  0  0  0  0  0
   10.9840   -3.3510    0.0000 H   0  0  0  0  0  0  0  0  0  0  0  0
   13.5380   -1.7770    0.0000 H   0  0  0  0  0  0  0  0  0  0  0  0
   14.3250   -3.0540    0.0000 H   0  0  0  0  0  0  0  0  0  0  0  0
   11.7710   -4.6280    0.0000 H   0  0  0  0  0  0  0  0  0  0  0  0
   15.3350   -5.0740    0.0000 H   0  0  0  0  0  0  0  0  0  0  0  0
   13.1980   -9.0350    0.0000 H   0  0  0  0  0  0  0  0  0  0  0  0
   10.9110   -7.8010    0.0000 H   0  0  0  0  0  0  0  0  0  0  0  0
   10.8360   -5.2040    0.0000 H   0  0  0  0  0  0  0  0  0  0  0  0
    3.1150    2.3700    0.0000 H   0  0  0  0  0  0  0  0  0  0  0  0
   -1.5330    7.4350    0.0000 H   0  0  0  0  0  0  0  0  0  0  0  0
    1.6150    2.3270    0.0000 H   0  0  0  0  0  0  0  0  0  0  0  0
   -3.6700    3.4740    0.0000 H   0  0  0  0  0  0  0  0  0  0  0  0
   -7.1810    0.5810    0.0000 H   0  0  0  0  0  0  0  0  0  0  0  0
   -8.1660    0.3730    0.0000 H   0  0  0  0  0  0  0  0  0  0  0  0
  -10.1910    1.0640    0.0000 H   0  0  0  0  0  0  0  0  0  0  0  0
  -11.1210    3.1040    0.0000 H   0  0  0  0  0  0  0  0  0  0  0  0
   -9.8930    4.9800    0.0000 H   0  0  0  0  0  0  0  0  0  0  0  0
   -7.9420    5.4540    0.0000 H   0  0  0  0  0  0  0  0  0  0  0  0
   -6.8450    5.0030    0.0000 H   0  0  0  0  0  0  0  0  0  0  0  0
   -5.7920    3.2940    0.0000 H   0  0  0  0  0  0  0  0  0  0  0  0
   -5.7320   -3.0830    0.0000 H   0  0  0  0  0  0  0  0  0  0  0  0
   -1.3080   -0.3560    0.0000 H   0  0  0  0  0  0  0  0  0  0  0  0
   -7.9320    0.8340    0.0000 H   0  0  0  0  0  0  0  0  0  0  0  0
   -9.4740   -3.3920    0.0000 H   0  0  0  0  0  0  0  0  0  0  0  0
   -9.5610   -0.3930    0.0000 H   0  0  0  0  0  0  0  0  0  0  0  0
  -11.0600   -0.4370    0.0000 H   0  0  0  0  0  0  0  0  0  0  0  0
  -10.9740   -3.4350    0.0000 H   0  0  0  0  0  0  0  0  0  0  0  0
  -12.4730   -3.4790    0.0000 H   0  0  0  0  0  0  0  0  0  0  0  0
  -12.5600   -0.4800    0.0000 H   0  0  0  0  0  0  0  0  0  0  0  0
  -14.0590   -0.5230    0.0000 H   0  0  0  0  0  0  0  0  0  0  0  0
  -13.9720   -3.5220    0.0000 H   0  0  0  0  0  0  0  0  0  0  0  0
  -16.3020   -0.7890    0.0000 H   0  0  0  0  0  0  0  0  0  0  0  0
  -18.4390   -4.7490    0.0000 H   0  0  0  0  0  0  0  0  0  0  0  0
  -16.1520   -5.9830    0.0000 H   0  0  0  0  0  0  0  0  0  0  0  0
  -13.9410   -4.6200    0.0000 H   0  0  0  0  0  0  0  0  0  0  0  0
  1  2  1  0  0  0  0
  2  3  1  0  0  0  0
  2  4  1  0  0  0  0
  2  5  1  0  0  0  0
  5  6  2  0  0  0  0
  5 16  1  0  0  0  0
  6  7  1  0  0  0  0
  6 67  1  0  0  0  0
  7  8  2  0  0  0  0
  7 28  1  0  0  0  0
  8  9  1  0  0  0  0
  8 15  1  0  0  0  0
  9 10  1  0  0  0  0
 10 11  2  0  0  0  0
 10 14  1  0  0  0  0
 10 68  1  0  0  0  0
 11 12  1  0  0  0  0
 11 69  1  0  0  0  0
 11 70  1  0  0  0  0
 12 13  1  0  0  0  0
 12 71  1  0  0  0  0
 13 14  2  0  0  0  0
 13 72  1  0  0  0  0
 13 73  1  0  0  0  0
 14 74  1  0  0  0  0
 14 75  1  0  0  0  0
 15 16  2  0  0  0  0
 15 17  1  0  0  0  0
 16 76  1  0  0  0  0
 17 18  1  0  0  0  0
 17 77  1  0  0  0  0
 18 19  2  0  0  0  0
 18 20  1  0  0  0  0
 20 21  1  0  0  0  0
 20 78  1  0  0  0  0
 20 79  1  0  0  0  0
 21 22  1  0  0  0  0
 21 80  1  0  0  0  0
 21 81  1  0  0  0  0
 22 23  1  0  0  0  0
 22 82  1  0  0  0  0
 22 83  1  0  0  0  0
 23 24  1  0  0  0  0
 23 84  1  0  0  0  0
 23 85  1  0  0  0  0
 24 25  1  0  0  0  0
 24 86  1  0  0  0  0
 25 26  2  0  0  0  0
 25 27  1  0  0  0  0
 26 87  1  0  0  0  0
 27 88  1  0  0  0  0
 27 89  1  0  0  0  0
 28 29  1  0  0  0  0
 28 90  1  0  0  0  0
 29 30  2  0  0  0  0
 29 31  1  0  0  0  0
 31 32  2  0  0  0  0
 31 36  1  0  0  0  0
 32 33  2  0  0  0  0
 33 34  2  0  0  0  0
 33 91  1  0  0  0  0
 34 35  1  0  0  0  0
 35 36  2  0  0  0  0
 35 37  1  0  0  0  0
 36 92  1  0  0  0  0
 37 38  2  0  0  0  0
 37 39  1  0  0  0  0
 39 40  1  0  0  0  0
 39 93  1  0  0  0  0
 40 41  2  0  0  0  0
 40 51  2  0  0  0  0
 41 42  1  0  0  0  0
 41 48  2  0  0  0  0
 42 43  1  0  0  0  0
 43 44  2  0  0  0  0
 43 47  1  0  0  0  0
 43 94  1  0  0  0  0
 44 45  1  0  0  0  0
 44 95  1  0  0  0  0
 44 96  1  0  0  0  0
 45 46  1  0  0  0  0
 45 97  1  0  0  0  0
 46 47  2  0  0  0  0
 46 98  1  0  0  0  0
 46 99  1  0  0  0  0
 47100  1  0  0  0  0
 47101  1  0  0  0  0
 48 49  2  0  0  0  0
 48 56  1  0  0  0  0
 49 50  2  0  0  0  0
 49102  1  0  0  0  0
 50 51  2  0  0  0  0
 50 52  1  0  0  0  0
 51103  1  0  0  0  0
 52 53  1  0  0  0  0
 52 54  1  0  0  0  0
 52 55  1  0  0  0  0
 56 57  1  0  0  0  0
 56104  1  0  0  0  0
 57 58  2  0  0  0  0
 57 59  1  0  0  0  0
 59 60  1  0  0  0  0
 59105  1  0  0  0  0
 59106  1  0  0  0  0
 60 61  1  0  0  0  0
 60107  1  0  0  0  0
 60108  1  0  0  0  0
 61 62  1  0  0  0  0
 61109  1  0  0  0  0
 61110  1  0  0  0  0
 62 63  1  0  0  0  0
 62111  1  0  0  0  0
 62112  1  0  0  0  0
 63 64  1  0  0  0  0
 63113  1  0  0  0  0
 64 65  2  0  0  0  0
 64 66  1  0  0  0  0
 65114  1  0  0  0  0
 66115  1  0  0  0  0
 66116  1  0  0  0  0
M  END
$$$$
