2D_structures\o2_MMV1782140_2D.pdb
 OpenBabel02272422463D

 31 33  0  0  0  0  0  0  0  0999 V2000
   -7.6760   -1.8920    0.0000 Cl  0  0  0  0  0  0  0  0  0  0  0  0
   -6.3670   -1.1600    0.0000 C   0  0  0  0  0  0  0  0  0  0  0  0
   -6.3470    0.3400    0.0000 C   0  0  0  0  0  0  0  0  0  0  0  0
   -5.0380    1.0730    0.0000 C   0  0  0  0  0  0  0  0  0  0  0  0
   -3.7490    0.3060    0.0000 C   0  0  0  0  0  0  0  0  0  0  0  0
   -2.4400    1.0380    0.0000 C   0  0  0  0  0  0  0  0  0  0  0  0
   -2.2640    2.5280    0.0000 N   0  0  0  0  0  0  0  0  0  0  0  0
   -0.7920    2.8200    0.0000 N   0  0  0  0  0  0  0  0  0  0  0  0
   -0.0600    1.5110    0.0000 C   0  0  0  0  0  0  0  0  0  0  0  0
   -1.0780    0.4100    0.0000 O   0  0  0  0  0  0  0  0  0  0  0  0
    1.4300    1.3340    0.0000 N   0  0  0  0  0  0  0  0  0  0  0  0
    2.0220   -0.0440    0.0000 C   0  0  0  0  0  0  0  0  0  0  0  0
    1.1240   -1.2460    0.0000 O   0  0  0  0  0  0  0  0  0  0  0  0
    3.5110   -0.2210    0.0000 C   0  0  0  0  0  0  0  0  0  0  0  0
    4.1030   -1.5990    0.0000 C   0  0  0  0  0  0  0  0  0  0  0  0
    5.5930   -1.7760    0.0000 C   0  0  0  0  0  0  0  0  0  0  0  0
    6.4900   -0.5740    0.0000 C   0  0  0  0  0  0  0  0  0  0  0  0
    7.9800   -0.7510    0.0000 F   0  0  0  0  0  0  0  0  0  0  0  0
    5.8990    0.8040    0.0000 C   0  0  0  0  0  0  0  0  0  0  0  0
    4.4090    0.9810    0.0000 C   0  0  0  0  0  0  0  0  0  0  0  0
   -3.7690   -1.1940    0.0000 C   0  0  0  0  0  0  0  0  0  0  0  0
   -5.0780   -1.9270    0.0000 C   0  0  0  0  0  0  0  0  0  0  0  0
   -7.6360    1.1070    0.0000 H   0  0  0  0  0  0  0  0  0  0  0  0
   -5.0180    2.5730    0.0000 H   0  0  0  0  0  0  0  0  0  0  0  0
    2.3280    2.5360    0.0000 H   0  0  0  0  0  0  0  0  0  0  0  0
    3.2050   -2.8010    0.0000 H   0  0  0  0  0  0  0  0  0  0  0  0
    6.1840   -3.1540    0.0000 H   0  0  0  0  0  0  0  0  0  0  0  0
    6.7960    2.0060    0.0000 H   0  0  0  0  0  0  0  0  0  0  0  0
    3.8170    2.3590    0.0000 H   0  0  0  0  0  0  0  0  0  0  0  0
   -2.4800   -1.9620    0.0000 H   0  0  0  0  0  0  0  0  0  0  0  0
   -5.0980   -3.4270    0.0000 H   0  0  0  0  0  0  0  0  0  0  0  0
  1  2  1  0  0  0  0
  2  3  2  0  0  0  0
  2 22  1  0  0  0  0
  3  4  1  0  0  0  0
  3 23  1  0  0  0  0
  4  5  2  0  0  0  0
  4 24  1  0  0  0  0
  5  6  1  0  0  0  0
  5 21  1  0  0  0  0
  6  7  2  0  0  0  0
  6 10  1  0  0  0  0
  7  8  1  0  0  0  0
  8  9  2  0  0  0  0
  9 10  1  0  0  0  0
  9 11  1  0  0  0  0
 11 12  1  0  0  0  0
 11 25  1  0  0  0  0
 12 13  2  0  0  0  0
 12 14  1  0  0  0  0
 14 15  2  0  0  0  0
 14 20  1  0  0  0  0
 15 16  1  0  0  0  0
 15 26  1  0  0  0  0
 16 17  2  0  0  0  0
 16 27  1  0  0  0  0
 17 18  1  0  0  0  0
 17 19  1  0  0  0  0
 19 20  2  0  0  0  0
 19 28  1  0  0  0  0
 20 29  1  0  0  0  0
 21 22  2  0  0  0  0
 21 30  1  0  0  0  0
 22 31  1  0  0  0  0
M  END
$$$$
