2D_structures\o31_MMV000051_2D.pdb
 OpenBabel02272422463D

 60 61  0  0  1  0  0  0  0  0999 V2000
    5.7390    2.9210    0.0000 C   0  0  0  0  0  0  0  0  0  0  0  0
    5.0120    1.6090    0.0000 C   0  0  0  0  0  0  0  0  0  0  0  0
    4.2860    0.2970    0.0000 C   0  0  0  0  0  0  0  0  0  0  0  0
    3.5590   -1.0160    0.0000 C   0  0  0  0  0  0  0  0  0  0  0  0
    2.3300   -0.1560    0.0000 C   0  0  0  0  0  0  0  0  0  0  0  0
    1.1320   -1.0590    0.0000 C   0  0  0  0  0  0  0  0  0  0  0  0
    1.6210   -2.4770    0.0000 N   0  0  0  0  0  0  0  0  0  0  0  0
    0.7610   -3.7060    0.0000 C   0  0  0  0  0  0  0  0  0  0  0  0
    3.1210   -2.4500    0.0000 C   0  0  0  0  0  0  0  0  0  0  0  0
   -0.2270   -1.6930    0.0000 C   0  0  0  0  0  0  0  0  0  0  0  0
   -0.3570   -3.1870    0.0000 O   0  0  0  0  0  0  0  0  0  0  0  0
   -1.4560   -0.8330    0.0000 N   0  0  0  0  0  0  0  0  0  0  0  0
   -2.8150   -1.4680    0.0000 C   0  0  1  0  0  0  0  0  0  0  0  0
   -2.1810   -2.8270    0.0000 C   0  0  1  0  0  0  0  0  0  0  0  0
   -1.5470   -4.1860    0.0000 C   0  0  0  0  0  0  0  0  0  0  0  0
   -3.5400   -3.4610    0.0000 Cl  0  0  0  0  0  0  0  0  0  0  0  0
   -3.4500   -0.1080    0.0000 C   0  0  1  0  0  0  0  0  0  0  0  0
   -2.0010    0.2800    0.0000 O   0  0  0  0  0  0  0  0  0  0  0  0
   -1.6130    1.7290    0.0000 C   0  0  1  0  0  0  0  0  0  0  0  0
   -0.7530    2.9580    0.0000 S   0  0  0  0  0  0  0  0  0  0  0  0
    0.7410    2.8280    0.0000 C   0  0  0  0  0  0  0  0  0  0  0  0
   -2.6740    2.7900    0.0000 C   0  0  1  0  0  0  0  0  0  0  0  0
   -3.3090    4.1490    0.0000 O   0  0  0  0  0  0  0  0  0  0  0  0
   -4.1230    2.4010    0.0000 C   0  0  1  0  0  0  0  0  0  0  0  0
   -5.6170    2.5310    0.0000 O   0  0  0  0  0  0  0  0  0  0  0  0
   -4.5110    0.9520    0.0000 C   0  0  1  0  0  0  0  0  0  0  0  0
   -5.3710   -0.2770    0.0000 O   0  0  0  0  0  0  0  0  0  0  0  0
    6.4660    4.2330    0.0000 H   0  0  0  0  0  0  0  0  0  0  0  0
    4.4270    3.6480    0.0000 H   0  0  0  0  0  0  0  0  0  0  0  0
    7.0510    2.1940    0.0000 H   0  0  0  0  0  0  0  0  0  0  0  0
    6.3250    0.8820    0.0000 H   0  0  0  0  0  0  0  0  0  0  0  0
    3.7000    2.3360    0.0000 H   0  0  0  0  0  0  0  0  0  0  0  0
    5.5980   -0.4300    0.0000 H   0  0  0  0  0  0  0  0  0  0  0  0
    3.6410    0.7650    0.0000 H   0  0  0  0  0  0  0  0  0  0  0  0
    4.9400   -1.6010    0.0000 H   0  0  0  0  0  0  0  0  0  0  0  0
    1.1800    0.8080    0.0000 H   0  0  0  0  0  0  0  0  0  0  0  0
    2.7750    0.5050    0.0000 H   0  0  0  0  0  0  0  0  0  0  0  0
    0.3590    0.2270    0.0000 H   0  0  0  0  0  0  0  0  0  0  0  0
   -0.0990   -4.9350    0.0000 H   0  0  0  0  0  0  0  0  0  0  0  0
    1.9900   -4.5660    0.0000 H   0  0  0  0  0  0  0  0  0  0  0  0
   -0.3540   -2.7030    0.0000 H   0  0  0  0  0  0  0  0  0  0  0  0
    4.5930   -2.7360    0.0000 H   0  0  0  0  0  0  0  0  0  0  0  0
    2.9910   -3.9450    0.0000 H   0  0  0  0  0  0  0  0  0  0  0  0
   -0.9680    0.5850    0.0000 H   0  0  0  0  0  0  0  0  0  0  0  0
   -4.1750   -2.1020    0.0000 H   0  0  0  0  0  0  0  0  0  0  0  0
   -0.7550   -2.3630    0.0000 H   0  0  0  0  0  0  0  0  0  0  0  0
   -0.9120   -5.5450    0.0000 H   0  0  0  0  0  0  0  0  0  0  0  0
   -0.1870   -3.5520    0.0000 H   0  0  0  0  0  0  0  0  0  0  0  0
   -2.9060   -4.8200    0.0000 H   0  0  0  0  0  0  0  0  0  0  0  0
   -4.6780   -0.9690    0.0000 H   0  0  0  0  0  0  0  0  0  0  0  0
   -0.3410    0.9350    0.0000 H   0  0  0  0  0  0  0  0  0  0  0  0
    2.2350    2.6980    0.0000 H   0  0  0  0  0  0  0  0  0  0  0  0
    0.8710    4.3230    0.0000 H   0  0  0  0  0  0  0  0  0  0  0  0
    0.6110    1.3340    0.0000 H   0  0  0  0  0  0  0  0  0  0  0  0
   -1.4460    3.6500    0.0000 H   0  0  0  0  0  0  0  0  0  0  0  0
   -2.4490    5.3780    0.0000 H   0  0  0  0  0  0  0  0  0  0  0  0
   -4.2540    3.8950    0.0000 H   0  0  0  0  0  0  0  0  0  0  0  0
   -6.2520    3.8900    0.0000 H   0  0  0  0  0  0  0  0  0  0  0  0
   -5.8700    1.5850    0.0000 H   0  0  0  0  0  0  0  0  0  0  0  0
   -6.8650   -0.1470    0.0000 H   0  0  0  0  0  0  0  0  0  0  0  0
  1  2  1  0  0  0  0
  1 28  1  0  0  0  0
  1 29  1  0  0  0  0
  1 30  1  0  0  0  0
  2  3  1  0  0  0  0
  2 31  1  0  0  0  0
  2 32  1  0  0  0  0
  3  4  1  0  0  0  0
  3 33  1  0  0  0  0
  3 34  1  0  0  0  0
  4  5  1  0  0  0  0
  4  9  2  0  0  0  0
  4 35  1  0  0  0  0
  5  6  2  0  0  0  0
  5 36  1  0  0  0  0
  5 37  1  0  0  0  0
  6  7  1  0  0  0  0
  6 10  1  0  0  0  0
  6 38  1  0  0  0  0
  7  8  1  0  0  0  0
  7  9  1  0  0  0  0
  8 39  1  0  0  0  0
  8 40  1  0  0  0  0
  8 41  1  0  0  0  0
  9 42  1  0  0  0  0
  9 43  1  0  0  0  0
 10 11  2  0  0  0  0
 10 12  1  0  0  0  0
 12 13  1  0  0  0  0
 12 44  1  0  0  0  0
 13 14  1  0  0  0  0
 13 17  1  0  0  0  0
 13 45  1  6  0  0  0
 14 15  1  0  0  0  0
 14 16  1  0  0  0  0
 14 46  1  6  0  0  0
 15 47  1  0  0  0  0
 15 48  1  0  0  0  0
 15 49  1  0  0  0  0
 17 18  1  0  0  0  0
 17 26  1  0  0  0  0
 17 50  1  1  0  0  0
 18 19  1  0  0  0  0
 19 20  1  0  0  0  0
 19 22  1  0  0  0  0
 19 51  1  1  0  0  0
 20 21  1  0  0  0  0
 21 52  1  0  0  0  0
 21 53  1  0  0  0  0
 21 54  1  0  0  0  0
 22 23  1  0  0  0  0
 22 24  1  0  0  0  0
 22 55  1  1  0  0  0
 23 56  1  0  0  0  0
 24 25  1  0  0  0  0
 24 26  1  0  0  0  0
 24 57  1  1  0  0  0
 25 58  1  0  0  0  0
 26 27  1  0  0  0  0
 26 59  1  1  0  0  0
 27 60  1  0  0  0  0
M  END
$$$$
