2D_structures\o32_MMV002287_2D.pdb
 OpenBabel02272422463D

 24 24  0  0  1  0  0  0  0  0999 V2000
   -3.4190   -0.2640    0.0000 C   0  0  0  0  0  0  0  0  0  0  0  0
   -1.9220   -0.1700    0.0000 C   0  0  1  0  0  0  0  0  0  0  0  0
   -2.0150    1.3270    0.0000 O   0  0  0  0  0  0  0  0  0  0  0  0
   -0.4250   -0.0770    0.0000 C   0  0  0  0  0  0  0  0  0  0  0  0
    1.0720    0.0160    0.0000 N   0  0  0  0  0  0  0  0  0  0  0  0
    2.0280   -1.1400    0.0000 C   0  0  0  0  0  0  0  0  0  0  0  0
    3.4230   -0.5890    0.0000 N   0  0  0  0  0  0  0  0  0  0  0  0
    3.3290    0.9080    0.0000 C   0  0  0  0  0  0  0  0  0  0  0  0
    1.8770    1.2820    0.0000 C   0  0  0  0  0  0  0  0  0  0  0  0
    1.3250    2.6770    0.0000 N   0  3  0  0  0  0  0  0  0  0  0  0
   -0.1580    2.8970    0.0000 O   0  5  0  0  0  0  0  0  0  0  0  0
    2.2580    3.8520    0.0000 O   0  0  0  0  0  0  0  0  0  0  0  0
    1.6540   -2.5930    0.0000 C   0  0  0  0  0  0  0  0  0  0  0  0
   -4.9160   -0.3570    0.0000 H   0  0  0  0  0  0  0  0  0  0  0  0
   -3.3260   -1.7610    0.0000 H   0  0  0  0  0  0  0  0  0  0  0  0
   -3.6940    1.2110    0.0000 H   0  0  0  0  0  0  0  0  0  0  0  0
   -1.8290   -1.6680    0.0000 H   0  0  0  0  0  0  0  0  0  0  0  0
   -3.2670    2.1530    0.0000 H   0  0  0  0  0  0  0  0  0  0  0  0
   -0.5150   -1.5750    0.0000 H   0  0  0  0  0  0  0  0  0  0  0  0
   -0.5180    1.4200    0.0000 H   0  0  0  0  0  0  0  0  0  0  0  0
    4.4860    1.8630    0.0000 H   0  0  0  0  0  0  0  0  0  0  0  0
    1.2800   -4.0460    0.0000 H   0  0  0  0  0  0  0  0  0  0  0  0
    0.1660   -2.3990    0.0000 H   0  0  0  0  0  0  0  0  0  0  0  0
    3.1060   -2.9670    0.0000 H   0  0  0  0  0  0  0  0  0  0  0  0
  1  2  1  0  0  0  0
  1 14  1  0  0  0  0
  1 15  1  0  0  0  0
  1 16  1  0  0  0  0
  2  3  1  0  0  0  0
  2  4  1  0  0  0  0
  2 17  1  6  0  0  0
  3 18  1  0  0  0  0
  4  5  1  0  0  0  0
  4 19  1  0  0  0  0
  4 20  1  0  0  0  0
  5  6  1  0  0  0  0
  5  9  1  0  0  0  0
  6  7  2  0  0  0  0
  6 13  1  0  0  0  0
  7  8  1  0  0  0  0
  8  9  2  0  0  0  0
  8 21  1  0  0  0  0
  9 10  1  0  0  0  0
 10 11  1  0  0  0  0
 10 12  2  0  0  0  0
 13 22  1  0  0  0  0
 13 23  1  0  0  0  0
 13 24  1  0  0  0  0
M  CHG  2  10   1  11  -1
M  END
$$$$
