2D_structures\o33_MMV831201_2D.pdb
 OpenBabel02272422463D

 58 61  0  0  1  0  0  0  0  0999 V2000
    7.5330   -3.6200    0.0000 F   0  0  0  0  0  0  0  0  0  0  0  0
    6.0550   -3.3640    0.0000 C   0  0  0  0  0  0  0  0  0  0  0  0
    5.7990   -4.8410    0.0000 F   0  0  0  0  0  0  0  0  0  0  0  0
    4.5770   -3.1070    0.0000 C   0  0  1  0  0  0  0  0  0  0  0  0
    3.1010   -3.3720    0.0000 N   0  0  0  0  0  0  0  0  0  0  0  0
    2.3090   -4.6460    0.0000 N   0  0  0  0  0  0  0  0  0  0  0  0
    0.8530   -4.2880    0.0000 C   0  0  0  0  0  0  0  0  0  0  0  0
    0.7440   -2.7920    0.0000 C   0  0  0  0  0  0  0  0  0  0  0  0
   -0.5300   -2.0010    0.0000 C   0  0  0  0  0  0  0  0  0  0  0  0
   -1.8530   -2.7090    0.0000 N   0  0  0  0  0  0  0  0  0  0  0  0
   -3.1270   -1.9170    0.0000 C   0  0  0  0  0  0  0  0  0  0  0  0
   -4.4010   -1.1260    0.0000 C   0  0  0  0  0  0  0  0  0  0  0  0
   -5.7240   -1.8340    0.0000 C   0  0  0  0  0  0  0  0  0  0  0  0
   -6.9980   -1.0430    0.0000 C   0  0  0  0  0  0  0  0  0  0  0  0
   -4.3530    0.3730    0.0000 C   0  0  0  0  0  0  0  0  0  0  0  0
   -5.6280    1.1640    0.0000 C   0  0  0  0  0  0  0  0  0  0  0  0
   -6.9500    0.4560    0.0000 C   0  0  0  0  0  0  0  0  0  0  0  0
   -8.2250    1.2470    0.0000 O   0  0  0  0  0  0  0  0  0  0  0  0
   -9.5470    0.5390    0.0000 C   0  0  0  0  0  0  0  0  0  0  0  0
   -0.4820   -0.5010    0.0000 O   0  0  0  0  0  0  0  0  0  0  0  0
    2.1330   -2.2260    0.0000 C   0  0  0  0  0  0  0  0  0  0  0  0
    2.6420   -0.8150    0.0000 N   0  0  0  0  0  0  0  0  0  0  0  0
    4.1190   -0.5500    0.0000 C   0  0  1  0  0  0  0  0  0  0  0  0
    3.6010    0.8580    0.0000 C   0  0  0  0  0  0  0  0  0  0  0  0
    2.1230    1.1140    0.0000 C   0  0  0  0  0  0  0  0  0  0  0  0
    1.6060    2.5220    0.0000 C   0  0  0  0  0  0  0  0  0  0  0  0
    4.5620    2.0100    0.0000 C   0  0  0  0  0  0  0  0  0  0  0  0
    4.0450    3.4180    0.0000 C   0  0  0  0  0  0  0  0  0  0  0  0
    2.5670    3.6740    0.0000 C   0  0  0  0  0  0  0  0  0  0  0  0
    2.0500    5.0820    0.0000 C   0  0  0  0  0  0  0  0  0  0  0  0
    1.5330    6.4900    0.0000 C   0  0  0  0  0  0  0  0  0  0  0  0
    5.0860   -1.6960    0.0000 C   0  0  0  0  0  0  0  0  0  0  0  0
    6.4900   -1.9280    0.0000 F   0  0  0  0  0  0  0  0  0  0  0  0
    4.5810   -4.6070    0.0000 H   0  0  0  0  0  0  0  0  0  0  0  0
   -0.2930   -5.2550    0.0000 H   0  0  0  0  0  0  0  0  0  0  0  0
   -1.9010   -4.2080    0.0000 H   0  0  0  0  0  0  0  0  0  0  0  0
   -2.3360   -0.6430    0.0000 H   0  0  0  0  0  0  0  0  0  0  0  0
   -3.9180   -3.1920    0.0000 H   0  0  0  0  0  0  0  0  0  0  0  0
   -5.7720   -3.3330    0.0000 H   0  0  0  0  0  0  0  0  0  0  0  0
   -8.3210   -1.7510    0.0000 H   0  0  0  0  0  0  0  0  0  0  0  0
   -3.0310    1.0810    0.0000 H   0  0  0  0  0  0  0  0  0  0  0  0
   -5.5800    2.6630    0.0000 H   0  0  0  0  0  0  0  0  0  0  0  0
  -10.8690   -0.1690    0.0000 H   0  0  0  0  0  0  0  0  0  0  0  0
  -10.2550    1.8620    0.0000 H   0  0  0  0  0  0  0  0  0  0  0  0
   -8.8390   -0.7830    0.0000 H   0  0  0  0  0  0  0  0  0  0  0  0
    2.0580   -0.2730    0.0000 H   0  0  0  0  0  0  0  0  0  0  0  0
    5.4150    0.2040    0.0000 H   0  0  0  0  0  0  0  0  0  0  0  0
    1.4770    0.5080    0.0000 H   0  0  0  0  0  0  0  0  0  0  0  0
    0.1280    2.7780    0.0000 H   0  0  0  0  0  0  0  0  0  0  0  0
    6.0400    1.7540    0.0000 H   0  0  0  0  0  0  0  0  0  0  0  0
    5.0060    4.5700    0.0000 H   0  0  0  0  0  0  0  0  0  0  0  0
    0.6420    4.5650    0.0000 H   0  0  0  0  0  0  0  0  0  0  0  0
    3.4580    5.5990    0.0000 H   0  0  0  0  0  0  0  0  0  0  0  0
    1.0160    7.8980    0.0000 H   0  0  0  0  0  0  0  0  0  0  0  0
    2.9410    7.0070    0.0000 H   0  0  0  0  0  0  0  0  0  0  0  0
    0.1250    5.9730    0.0000 H   0  0  0  0  0  0  0  0  0  0  0  0
    6.0470   -0.5440    0.0000 H   0  0  0  0  0  0  0  0  0  0  0  0
    6.4690   -2.2780    0.0000 H   0  0  0  0  0  0  0  0  0  0  0  0
  1  2  1  0  0  0  0
  2  3  1  0  0  0  0
  2  4  1  0  0  0  0
  2 33  1  0  0  0  0
  4  5  1  0  0  0  0
  4 32  1  0  0  0  0
  4 34  1  6  0  0  0
  5  6  1  0  0  0  0
  5 21  1  0  0  0  0
  6  7  2  0  0  0  0
  7  8  1  0  0  0  0
  7 35  1  0  0  0  0
  8  9  1  0  0  0  0
  8 21  2  0  0  0  0
  9 10  1  0  0  0  0
  9 20  2  0  0  0  0
 10 11  1  0  0  0  0
 10 36  1  0  0  0  0
 11 12  1  0  0  0  0
 11 37  1  0  0  0  0
 11 38  1  0  0  0  0
 12 13  2  0  0  0  0
 12 15  1  0  0  0  0
 13 14  1  0  0  0  0
 13 39  1  0  0  0  0
 14 17  2  0  0  0  0
 14 40  1  0  0  0  0
 15 16  2  0  0  0  0
 15 41  1  0  0  0  0
 16 17  1  0  0  0  0
 16 42  1  0  0  0  0
 17 18  1  0  0  0  0
 18 19  1  0  0  0  0
 19 43  1  0  0  0  0
 19 44  1  0  0  0  0
 19 45  1  0  0  0  0
 21 22  1  0  0  0  0
 22 23  1  0  0  0  0
 22 46  1  0  0  0  0
 23 24  1  0  0  0  0
 23 32  1  0  0  0  0
 23 47  1  6  0  0  0
 24 25  2  0  0  0  0
 24 27  1  0  0  0  0
 25 26  1  0  0  0  0
 25 48  1  0  0  0  0
 26 29  2  0  0  0  0
 26 49  1  0  0  0  0
 27 28  2  0  0  0  0
 27 50  1  0  0  0  0
 28 29  1  0  0  0  0
 28 51  1  0  0  0  0
 29 30  1  0  0  0  0
 30 31  1  0  0  0  0
 30 52  1  0  0  0  0
 30 53  1  0  0  0  0
 31 54  1  0  0  0  0
 31 55  1  0  0  0  0
 31 56  1  0  0  0  0
 32 57  1  0  0  0  0
 32 58  1  0  0  0  0
M  END
$$$$
