2D_structures\o37_MMV1581556_2D.pdb
 OpenBabel02272422463D

 35 37  0  0  0  0  0  0  0  0999 V2000
   -3.8110   -3.2500    0.0000 N   0  0  0  0  0  0  0  0  0  0  0  0
   -3.2200   -1.8710    0.0000 C   0  0  0  0  0  0  0  0  0  0  0  0
   -4.1540   -0.8960    0.0000 O   0  0  0  0  0  0  0  0  0  0  0  0
   -1.7300   -1.6940    0.0000 C   0  0  0  0  0  0  0  0  0  0  0  0
   -0.7110   -2.7950    0.0000 N   0  0  0  0  0  0  0  0  0  0  0  0
    0.6510   -2.1660    0.0000 C   0  0  0  0  0  0  0  0  0  0  0  0
    2.0290   -2.7580    0.0000 C   0  0  0  0  0  0  0  0  0  0  0  0
    3.2300   -1.8600    0.0000 C   0  0  0  0  0  0  0  0  0  0  0  0
    3.0530   -0.3700    0.0000 C   0  0  0  0  0  0  0  0  0  0  0  0
    1.6750    0.2210    0.0000 C   0  0  0  0  0  0  0  0  0  0  0  0
    0.4730   -0.6770    0.0000 C   0  0  0  0  0  0  0  0  0  0  0  0
   -0.9980   -0.3850    0.0000 C   0  0  0  0  0  0  0  0  0  0  0  0
   -1.6270    0.9770    0.0000 C   0  0  0  0  0  0  0  0  0  0  0  0
   -0.7610    2.2020    0.0000 C   0  0  0  0  0  0  0  0  0  0  0  0
   -1.3900    3.5640    0.0000 C   0  0  0  0  0  0  0  0  0  0  0  0
   -2.8840    3.7010    0.0000 C   0  0  0  0  0  0  0  0  0  0  0  0
   -3.7490    2.4750    0.0000 C   0  0  0  0  0  0  0  0  0  0  0  0
   -3.1200    1.1130    0.0000 C   0  0  0  0  0  0  0  0  0  0  0  0
    4.2550    0.5280    0.0000 S   0  0  0  0  0  0  0  0  0  0  0  0
    3.3570    1.7290    0.0000 O   0  0  0  0  0  0  0  0  0  0  0  0
    5.1530   -0.6730    0.0000 O   0  0  0  0  0  0  0  0  0  0  0  0
    5.4560    1.4260    0.0000 N   0  0  0  0  0  0  0  0  0  0  0  0
   -2.9130   -4.4510    0.0000 H   0  0  0  0  0  0  0  0  0  0  0  0
   -5.3010   -3.4270    0.0000 H   0  0  0  0  0  0  0  0  0  0  0  0
   -1.0030   -4.2660    0.0000 H   0  0  0  0  0  0  0  0  0  0  0  0
    2.2060   -4.2470    0.0000 H   0  0  0  0  0  0  0  0  0  0  0  0
    4.6090   -2.4510    0.0000 H   0  0  0  0  0  0  0  0  0  0  0  0
    1.6810    1.7210    0.0000 H   0  0  0  0  0  0  0  0  0  0  0  0
    0.7380    2.2490    0.0000 H   0  0  0  0  0  0  0  0  0  0  0  0
   -0.5250    4.7900    0.0000 H   0  0  0  0  0  0  0  0  0  0  0  0
   -3.5130    5.0630    0.0000 H   0  0  0  0  0  0  0  0  0  0  0  0
   -5.2430    2.6120    0.0000 H   0  0  0  0  0  0  0  0  0  0  0  0
   -4.0280    0.1140    0.0000 H   0  0  0  0  0  0  0  0  0  0  0  0
    6.8350    0.8350    0.0000 H   0  0  0  0  0  0  0  0  0  0  0  0
    5.2790    2.9160    0.0000 H   0  0  0  0  0  0  0  0  0  0  0  0
  1  2  1  0  0  0  0
  1 23  1  0  0  0  0
  1 24  1  0  0  0  0
  2  3  2  0  0  0  0
  2  4  1  0  0  0  0
  4  5  1  0  0  0  0
  4 12  2  0  0  0  0
  5  6  1  0  0  0  0
  5 25  1  0  0  0  0
  6  7  2  0  0  0  0
  6 11  1  0  0  0  0
  7  8  1  0  0  0  0
  7 26  1  0  0  0  0
  8  9  2  0  0  0  0
  8 27  1  0  0  0  0
  9 10  1  0  0  0  0
  9 19  1  0  0  0  0
 10 11  2  0  0  0  0
 10 28  1  0  0  0  0
 11 12  1  0  0  0  0
 12 13  1  0  0  0  0
 13 14  2  0  0  0  0
 13 18  1  0  0  0  0
 14 15  1  0  0  0  0
 14 29  1  0  0  0  0
 15 16  2  0  0  0  0
 15 30  1  0  0  0  0
 16 17  1  0  0  0  0
 16 31  1  0  0  0  0
 17 18  2  0  0  0  0
 17 32  1  0  0  0  0
 18 33  1  0  0  0  0
 19 20  2  0  0  0  0
 19 21  2  0  0  0  0
 19 22  1  0  0  0  0
 22 34  1  0  0  0  0
 22 35  1  0  0  0  0
M  END
$$$$
