2D_structures\o38_MMV1581549_2D.pdb
 OpenBabel02272422463D

 36 37  0  0  0  0  0  0  0  0999 V2000
   -1.8240   -3.3630    0.0000 C   0  0  0  0  0  0  0  0  0  0  0  0
   -2.5070   -2.0280    0.0000 C   0  0  0  0  0  0  0  0  0  0  0  0
   -3.1890   -0.6920    0.0000 C   0  0  0  0  0  0  0  0  0  0  0  0
   -4.6870   -0.6160    0.0000 N   0  0  0  0  0  4  0  0  0  0  0  0
   -5.3700    0.7200    0.0000 C   0  0  0  0  0  0  0  0  0  0  0  0
   -6.8680    0.7960    0.0000 N   0  0  0  0  0  0  0  0  0  0  0  0
   -4.5550    1.9790    0.0000 N   0  0  0  0  0  0  0  0  0  0  0  0
   -3.0570    1.9030    0.0000 C   0  0  0  0  0  0  0  0  0  0  0  0
   -2.2420    3.1620    0.0000 N   0  0  0  0  0  0  0  0  0  0  0  0
   -2.3740    0.5670    0.0000 C   0  0  0  0  0  0  0  0  0  0  0  0
   -0.8760    0.4910    0.0000 C   0  0  0  0  0  0  0  0  0  0  0  0
    0.6220    0.4140    0.0000 C   0  0  0  0  0  0  0  0  0  0  0  0
    2.1200    0.3380    0.0000 C   0  0  0  0  0  0  0  0  0  0  0  0
    3.6180    0.2610    0.0000 C   0  0  0  0  0  0  0  0  0  0  0  0
    4.3010   -1.0740    0.0000 C   0  0  0  0  0  0  0  0  0  0  0  0
    5.7990   -1.1510    0.0000 C   0  0  0  0  0  0  0  0  0  0  0  0
    6.6140    0.1090    0.0000 C   0  0  0  0  0  0  0  0  0  0  0  0
    5.9310    1.4440    0.0000 C   0  0  0  0  0  0  0  0  0  0  0  0
    4.4330    1.5210    0.0000 C   0  0  0  0  0  0  0  0  0  0  0  0
   -1.1410   -4.6990    0.0000 H   0  0  0  0  0  0  0  0  0  0  0  0
   -0.4880   -2.6800    0.0000 H   0  0  0  0  0  0  0  0  0  0  0  0
   -3.1590   -4.0460    0.0000 H   0  0  0  0  0  0  0  0  0  0  0  0
   -3.8420   -2.7100    0.0000 H   0  0  0  0  0  0  0  0  0  0  0  0
   -1.1710   -1.3450    0.0000 H   0  0  0  0  0  0  0  0  0  0  0  0
   -7.5510    2.1320    0.0000 H   0  0  0  0  0  0  0  0  0  0  0  0
   -7.6840   -0.4630    0.0000 H   0  0  0  0  0  0  0  0  0  0  0  0
   -0.7440    3.0850    0.0000 H   0  0  0  0  0  0  0  0  0  0  0  0
   -2.9250    4.4970    0.0000 H   0  0  0  0  0  0  0  0  0  0  0  0
    2.0440   -1.1600    0.0000 H   0  0  0  0  0  0  0  0  0  0  0  0
    2.1960    1.8360    0.0000 H   0  0  0  0  0  0  0  0  0  0  0  0
    3.4860   -2.3330    0.0000 H   0  0  0  0  0  0  0  0  0  0  0  0
    6.4820   -2.4860    0.0000 H   0  0  0  0  0  0  0  0  0  0  0  0
    8.1120    0.0320    0.0000 H   0  0  0  0  0  0  0  0  0  0  0  0
    6.7460    2.7030    0.0000 H   0  0  0  0  0  0  0  0  0  0  0  0
    3.7500    2.8560    0.0000 H   0  0  0  0  0  0  0  0  0  0  0  0
   -5.0033    2.8555    0.0000 H   0  0  0  0  0  0  0  0  0  0  0  0
  1  2  1  0  0  0  0
  1 20  1  0  0  0  0
  1 21  1  0  0  0  0
  1 22  1  0  0  0  0
  2  3  1  0  0  0  0
  2 23  1  0  0  0  0
  2 24  1  0  0  0  0
  3  4  2  0  0  0  0
  3 10  1  0  0  0  0
  4  5  2  0  0  0  0
  5  6  1  0  0  0  0
  5  7  1  0  0  0  0
  6 25  1  0  0  0  0
  6 26  1  0  0  0  0
  7  8  1  0  0  0  0
  7 36  1  0  0  0  0
  8  9  1  0  0  0  0
  8 10  2  0  0  0  0
  9 27  1  0  0  0  0
  9 28  1  0  0  0  0
 10 11  1  0  0  0  0
 11 12  3  0  0  0  0
 12 13  1  0  0  0  0
 13 14  1  0  0  0  0
 13 29  1  0  0  0  0
 13 30  1  0  0  0  0
 14 15  2  0  0  0  0
 14 19  1  0  0  0  0
 15 16  1  0  0  0  0
 15 31  1  0  0  0  0
 16 17  2  0  0  0  0
 16 32  1  0  0  0  0
 17 18  1  0  0  0  0
 17 33  1  0  0  0  0
 18 19  2  0  0  0  0
 18 34  1  0  0  0  0
 19 35  1  0  0  0  0
M  END
$$$$
