2D_structures\o39_MMV1580847_2D.pdb
 OpenBabel02272422463D

 67 69  0  0  0  0  0  0  0  0999 V2000
   15.1550   -1.5750    0.0000 C   0  0  0  0  0  0  0  0  0  0  0  0
   13.6770   -1.3180    0.0000 C   0  0  0  0  0  0  0  0  0  0  0  0
   12.1990   -1.0620    0.0000 C   0  0  0  0  0  0  0  0  0  0  0  0
   10.7210   -0.8050    0.0000 C   0  0  0  0  0  0  0  0  0  0  0  0
    9.2430   -0.5480    0.0000 C   0  0  0  0  0  0  0  0  0  0  0  0
    7.7650   -0.2910    0.0000 C   0  0  0  0  0  0  0  0  0  0  0  0
    6.8040   -1.4430    0.0000 C   0  0  0  0  0  0  0  0  0  0  0  0
    5.3260   -1.1860    0.0000 C   0  0  0  0  0  0  0  0  0  0  0  0
    4.8090    0.2220    0.0000 C   0  0  0  0  0  0  0  0  0  0  0  0
    5.7710    1.3730    0.0000 C   0  0  0  0  0  0  0  0  0  0  0  0
    7.2490    1.1170    0.0000 C   0  0  0  0  0  0  0  0  0  0  0  0
    3.3320    0.4790    0.0000 C   0  0  0  0  0  0  0  0  0  0  0  0
    2.3700   -0.6730    0.0000 O   0  0  0  0  0  0  0  0  0  0  0  0
    2.8150    1.8870    0.0000 N   0  0  0  0  0  0  0  0  0  0  0  0
    1.3370    2.1440    0.0000 C   0  0  0  0  0  0  0  0  0  0  0  0
   -0.1410    2.4000    0.0000 C   0  0  0  0  0  0  0  0  0  0  0  0
   -1.6190    2.6570    0.0000 N   0  0  0  0  0  0  0  0  0  0  0  0
   -2.6950    1.6120    0.0000 C   0  0  0  0  0  0  0  0  0  0  0  0
   -4.0210    2.3130    0.0000 C   0  0  0  0  0  0  0  0  0  0  0  0
   -5.3680    1.6520    0.0000 C   0  0  0  0  0  0  0  0  0  0  0  0
   -6.7140    0.9910    0.0000 C   0  0  0  0  0  0  0  0  0  0  0  0
   -8.0610    0.3300    0.0000 C   0  0  0  0  0  0  0  0  0  0  0  0
   -9.4070   -0.3310    0.0000 C   0  0  0  0  0  0  0  0  0  0  0  0
  -10.7540   -0.9920    0.0000 C   0  0  0  0  0  0  0  0  0  0  0  0
  -12.1000   -1.6530    0.0000 C   0  0  0  0  0  0  0  0  0  0  0  0
  -12.3570   -3.1310    0.0000 C   0  0  0  0  0  0  0  0  0  0  0  0
  -13.8420   -3.3430    0.0000 N   0  0  0  0  0  0  0  0  0  0  0  0
  -14.5030   -1.9970    0.0000 C   0  0  0  0  0  0  0  0  0  0  0  0
  -15.9810   -1.7400    0.0000 N   0  0  0  0  0  0  0  0  0  0  0  0
  -13.4260   -0.9520    0.0000 N   0  0  0  0  0  0  0  0  0  0  0  0
   -3.7640    3.7910    0.0000 N   0  0  0  0  0  0  0  0  0  0  0  0
   -2.2800    4.0030    0.0000 N   0  0  0  0  0  0  0  0  0  0  0  0
   16.6320   -1.8320    0.0000 H   0  0  0  0  0  0  0  0  0  0  0  0
   14.8980   -3.0530    0.0000 H   0  0  0  0  0  0  0  0  0  0  0  0
   15.4110   -0.0970    0.0000 H   0  0  0  0  0  0  0  0  0  0  0  0
   13.4200   -2.7960    0.0000 H   0  0  0  0  0  0  0  0  0  0  0  0
   13.9330    0.1600    0.0000 H   0  0  0  0  0  0  0  0  0  0  0  0
   12.4560    0.4160    0.0000 H   0  0  0  0  0  0  0  0  0  0  0  0
   11.9420   -2.5390    0.0000 H   0  0  0  0  0  0  0  0  0  0  0  0
   10.4640   -2.2830    0.0000 H   0  0  0  0  0  0  0  0  0  0  0  0
   10.9780    0.6730    0.0000 H   0  0  0  0  0  0  0  0  0  0  0  0
    8.9860   -2.0260    0.0000 H   0  0  0  0  0  0  0  0  0  0  0  0
    9.5000    0.9300    0.0000 H   0  0  0  0  0  0  0  0  0  0  0  0
    7.3210   -2.8510    0.0000 H   0  0  0  0  0  0  0  0  0  0  0  0
    4.3650   -2.3380    0.0000 H   0  0  0  0  0  0  0  0  0  0  0  0
    5.2540    2.7820    0.0000 H   0  0  0  0  0  0  0  0  0  0  0  0
    8.2100    2.2680    0.0000 H   0  0  0  0  0  0  0  0  0  0  0  0
    3.7760    3.0380    0.0000 H   0  0  0  0  0  0  0  0  0  0  0  0
    1.0800    0.6660    0.0000 H   0  0  0  0  0  0  0  0  0  0  0  0
    1.5940    3.6210    0.0000 H   0  0  0  0  0  0  0  0  0  0  0  0
   -0.3970    0.9220    0.0000 H   0  0  0  0  0  0  0  0  0  0  0  0
    0.1160    3.8780    0.0000 H   0  0  0  0  0  0  0  0  0  0  0  0
   -2.4820    0.1270    0.0000 H   0  0  0  0  0  0  0  0  0  0  0  0
   -6.0290    2.9990    0.0000 H   0  0  0  0  0  0  0  0  0  0  0  0
   -4.7070    0.3060    0.0000 H   0  0  0  0  0  0  0  0  0  0  0  0
   -6.0530   -0.3550    0.0000 H   0  0  0  0  0  0  0  0  0  0  0  0
   -7.3750    2.3380    0.0000 H   0  0  0  0  0  0  0  0  0  0  0  0
   -8.7220    1.6770    0.0000 H   0  0  0  0  0  0  0  0  0  0  0  0
   -7.4000   -1.0160    0.0000 H   0  0  0  0  0  0  0  0  0  0  0  0
   -8.7460   -1.6770    0.0000 H   0  0  0  0  0  0  0  0  0  0  0  0
  -10.0680    1.0160    0.0000 H   0  0  0  0  0  0  0  0  0  0  0  0
  -10.0930   -2.3380    0.0000 H   0  0  0  0  0  0  0  0  0  0  0  0
  -11.4150    0.3550    0.0000 H   0  0  0  0  0  0  0  0  0  0  0  0
  -11.3120   -4.2070    0.0000 H   0  0  0  0  0  0  0  0  0  0  0  0
  -16.4970   -0.3320    0.0000 H   0  0  0  0  0  0  0  0  0  0  0  0
  -16.9420   -2.8920    0.0000 H   0  0  0  0  0  0  0  0  0  0  0  0
  -13.6390    0.5330    0.0000 H   0  0  0  0  0  0  0  0  0  0  0  0
  1  2  1  0  0  0  0
  1 33  1  0  0  0  0
  1 34  1  0  0  0  0
  1 35  1  0  0  0  0
  2  3  1  0  0  0  0
  2 36  1  0  0  0  0
  2 37  1  0  0  0  0
  3  4  1  0  0  0  0
  3 38  1  0  0  0  0
  3 39  1  0  0  0  0
  4  5  1  0  0  0  0
  4 40  1  0  0  0  0
  4 41  1  0  0  0  0
  5  6  1  0  0  0  0
  5 42  1  0  0  0  0
  5 43  1  0  0  0  0
  6  7  2  0  0  0  0
  6 11  1  0  0  0  0
  7  8  1  0  0  0  0
  7 44  1  0  0  0  0
  8  9  2  0  0  0  0
  8 45  1  0  0  0  0
  9 10  1  0  0  0  0
  9 12  1  0  0  0  0
 10 11  2  0  0  0  0
 10 46  1  0  0  0  0
 11 47  1  0  0  0  0
 12 13  2  0  0  0  0
 12 14  1  0  0  0  0
 14 15  1  0  0  0  0
 14 48  1  0  0  0  0
 15 16  1  0  0  0  0
 15 49  1  0  0  0  0
 15 50  1  0  0  0  0
 16 17  1  0  0  0  0
 16 51  1  0  0  0  0
 16 52  1  0  0  0  0
 17 18  1  0  0  0  0
 17 32  1  0  0  0  0
 18 19  2  0  0  0  0
 18 53  1  0  0  0  0
 19 20  1  0  0  0  0
 19 31  1  0  0  0  0
 20 21  1  0  0  0  0
 20 54  1  0  0  0  0
 20 55  1  0  0  0  0
 21 22  1  0  0  0  0
 21 56  1  0  0  0  0
 21 57  1  0  0  0  0
 22 23  1  0  0  0  0
 22 58  1  0  0  0  0
 22 59  1  0  0  0  0
 23 24  1  0  0  0  0
 23 60  1  0  0  0  0
 23 61  1  0  0  0  0
 24 25  1  0  0  0  0
 24 62  1  0  0  0  0
 24 63  1  0  0  0  0
 25 26  2  0  0  0  0
 25 30  1  0  0  0  0
 26 27  1  0  0  0  0
 26 64  1  0  0  0  0
 27 28  2  0  0  0  0
 28 29  1  0  0  0  0
 28 30  1  0  0  0  0
 29 65  1  0  0  0  0
 29 66  1  0  0  0  0
 30 67  1  0  0  0  0
 31 32  2  0  0  0  0
M  END
$$$$
