2D_structures\o41_MMV1579782_2D.pdb
 OpenBabel02272422463D

 32 33  0  0  1  0  0  0  0  0999 V2000
   -5.5380   -1.4260    0.0000 C   0  0  0  0  0  0  0  0  0  0  0  0
   -4.4410   -0.4040    0.0000 C   0  0  0  0  0  0  0  0  0  0  0  0
   -4.7780    1.0580    0.0000 C   0  0  0  0  0  0  0  0  0  0  0  0
   -3.6810    2.0810    0.0000 C   0  0  0  0  0  0  0  0  0  0  0  0
   -2.2470    1.6420    0.0000 C   0  0  0  0  0  0  0  0  0  0  0  0
   -1.9100    0.1800    0.0000 C   0  0  0  0  0  0  0  0  0  0  0  0
   -0.4750   -0.2590    0.0000 C   0  0  0  0  0  0  0  0  0  0  0  0
    0.9590   -0.6970    0.0000 C   0  0  0  0  0  0  0  0  0  0  0  0
    1.2960   -2.1590    0.0000 O   0  0  0  0  0  0  0  0  0  0  0  0
    2.0560    0.3250    0.0000 N   0  0  0  0  0  0  0  0  0  0  0  0
    3.4910   -0.1140    0.0000 C   0  0  1  0  0  0  0  0  0  0  0  0
    4.8030   -0.8410    0.0000 C   0  0  0  0  0  0  0  0  0  0  0  0
    5.9000    0.1820    0.0000 C   0  0  0  0  0  0  0  0  0  0  0  0
    5.2660    1.5410    0.0000 O   0  0  0  0  0  0  0  0  0  0  0  0
    3.7770    1.3590    0.0000 C   0  0  0  0  0  0  0  0  0  0  0  0
    2.7550    2.4560    0.0000 O   0  0  0  0  0  0  0  0  0  0  0  0
   -3.0070   -0.8420    0.0000 C   0  0  0  0  0  0  0  0  0  0  0  0
   -6.6360   -2.4490    0.0000 H   0  0  0  0  0  0  0  0  0  0  0  0
   -6.5610   -0.3290    0.0000 H   0  0  0  0  0  0  0  0  0  0  0  0
   -4.5160   -2.5240    0.0000 H   0  0  0  0  0  0  0  0  0  0  0  0
   -6.2130    1.4970    0.0000 H   0  0  0  0  0  0  0  0  0  0  0  0
   -4.0180    3.5420    0.0000 H   0  0  0  0  0  0  0  0  0  0  0  0
   -1.1490    2.6650    0.0000 H   0  0  0  0  0  0  0  0  0  0  0  0
   -0.9140   -1.6930    0.0000 H   0  0  0  0  0  0  0  0  0  0  0  0
   -0.0360    1.1760    0.0000 H   0  0  0  0  0  0  0  0  0  0  0  0
    1.7190    1.7870    0.0000 H   0  0  0  0  0  0  0  0  0  0  0  0
    2.9040   -1.4940    0.0000 H   0  0  0  0  0  0  0  0  0  0  0  0
    3.9420   -2.0700    0.0000 H   0  0  0  0  0  0  0  0  0  0  0  0
    5.9340   -1.8250    0.0000 H   0  0  0  0  0  0  0  0  0  0  0  0
    6.8020   -1.0160    0.0000 H   0  0  0  0  0  0  0  0  0  0  0  0
    7.1860    0.9540    0.0000 H   0  0  0  0  0  0  0  0  0  0  0  0
   -2.6700   -2.3040    0.0000 H   0  0  0  0  0  0  0  0  0  0  0  0
  1  2  1  0  0  0  0
  1 18  1  0  0  0  0
  1 19  1  0  0  0  0
  1 20  1  0  0  0  0
  2  3  2  0  0  0  0
  2 17  1  0  0  0  0
  3  4  1  0  0  0  0
  3 21  1  0  0  0  0
  4  5  2  0  0  0  0
  4 22  1  0  0  0  0
  5  6  1  0  0  0  0
  5 23  1  0  0  0  0
  6  7  1  0  0  0  0
  6 17  2  0  0  0  0
  7  8  1  0  0  0  0
  7 24  1  0  0  0  0
  7 25  1  0  0  0  0
  8  9  2  0  0  0  0
  8 10  1  0  0  0  0
 10 11  1  0  0  0  0
 10 26  1  0  0  0  0
 11 12  1  0  0  0  0
 11 15  1  0  0  0  0
 11 27  1  1  0  0  0
 12 13  1  0  0  0  0
 12 28  1  0  0  0  0
 12 29  1  0  0  0  0
 13 14  1  0  0  0  0
 13 30  1  0  0  0  0
 13 31  1  0  0  0  0
 14 15  1  0  0  0  0
 15 16  2  0  0  0  0
 17 32  1  0  0  0  0
M  END
$$$$
