2D_structures\o42_MMV1579777_2D.pdb
 OpenBabel02272422463D

 24 25  0  0  0  0  0  0  0  0999 V2000
   -3.8830   -3.1550    0.0000 O   0  0  0  0  0  0  0  0  0  0  0  0
   -3.3420   -1.7560    0.0000 C   0  0  0  0  0  0  0  0  0  0  0  0
   -4.2830   -0.5880    0.0000 N   0  0  0  0  0  4  0  0  0  0  0  0
   -3.7420    0.8110    0.0000 C   0  0  0  0  0  0  0  0  0  0  0  0
   -4.6830    1.9790    0.0000 O   0  0  0  0  0  0  0  0  0  0  0  0
   -2.2600    1.0420    0.0000 C   0  0  0  0  0  0  0  0  0  0  0  0
   -1.7190    2.4410    0.0000 Br  0  0  0  0  0  0  0  0  0  0  0  0
   -1.3190   -0.1260    0.0000 C   0  0  0  0  0  0  0  0  0  0  0  0
    0.1630    0.1050    0.0000 C   0  0  0  0  0  0  0  0  0  0  0  0
    1.6450    0.3360    0.0000 N   0  0  0  0  0  0  0  0  0  0  0  0
    2.3300    1.6700    0.0000 C   0  0  0  0  0  0  0  0  0  0  0  0
    3.8110    1.4320    0.0000 N   0  0  0  0  0  0  0  0  0  0  0  0
    4.0410   -0.0500    0.0000 C   0  0  0  0  0  0  0  0  0  0  0  0
    2.7030   -0.7280    0.0000 C   0  0  0  0  0  0  0  0  0  0  0  0
    5.3760   -0.7340    0.0000 N   0  3  0  0  0  0  0  0  0  0  0  0
    5.4510   -2.2330    0.0000 O   0  5  0  0  0  0  0  0  0  0  0  0
    6.6360    0.0790    0.0000 O   0  0  0  0  0  0  0  0  0  0  0  0
   -1.8600   -1.5250    0.0000 N   0  0  0  0  0  0  0  0  0  0  0  0
   -5.3650   -3.3860    0.0000 H   0  0  0  0  0  0  0  0  0  0  0  0
   -4.1420    3.3780    0.0000 H   0  0  0  0  0  0  0  0  0  0  0  0
    0.3940   -1.3770    0.0000 H   0  0  0  0  0  0  0  0  0  0  0  0
   -0.0680    1.5870    0.0000 H   0  0  0  0  0  0  0  0  0  0  0  0
    1.6520    3.0090    0.0000 H   0  0  0  0  0  0  0  0  0  0  0  0
    2.4650   -2.2090    0.0000 H   0  0  0  0  0  0  0  0  0  0  0  0
  1  2  1  0  0  0  0
  1 19  1  0  0  0  0
  2  3  2  0  0  0  0
  2 18  1  0  0  0  0
  3  4  2  0  0  0  0
  4  5  1  0  0  0  0
  4  6  2  0  0  0  0
  5 20  1  0  0  0  0
  6  7  1  0  0  0  0
  6  8  1  0  0  0  0
  8  9  1  0  0  0  0
  8 18  2  0  0  0  0
  9 10  1  0  0  0  0
  9 21  1  0  0  0  0
  9 22  1  0  0  0  0
 10 11  1  0  0  0  0
 10 14  1  0  0  0  0
 11 12  2  0  0  0  0
 11 23  1  0  0  0  0
 12 13  1  0  0  0  0
 13 14  2  0  0  0  0
 13 15  1  0  0  0  0
 14 24  1  0  0  0  0
 15 16  1  0  0  0  0
 15 17  2  0  0  0  0
M  CHG  2  15   1  16  -1
M  END
$$$$
