2D_structures\o43_MMV292173_2D.pdb
 OpenBabel02272422463D

 26 28  0  0  0  0  0  0  0  0999 V2000
    5.6580    1.4690    0.0000 O   0  0  0  0  0  0  0  0  0  0  0  0
    4.3460    0.7430    0.0000 C   0  0  0  0  0  0  0  0  0  0  0  0
    4.3180   -0.7570    0.0000 C   0  0  0  0  0  0  0  0  0  0  0  0
    3.0050   -1.4830    0.0000 C   0  0  0  0  0  0  0  0  0  0  0  0
    1.7200   -0.7090    0.0000 C   0  0  0  0  0  0  0  0  0  0  0  0
    0.2860   -1.1460    0.0000 N   0  0  0  0  0  0  0  0  0  0  0  0
   -0.5740    0.0830    0.0000 C   0  0  0  0  0  0  0  0  0  0  0  0
    0.3300    1.2800    0.0000 N   0  0  0  0  0  0  0  0  0  0  0  0
    1.7480    0.7910    0.0000 C   0  0  0  0  0  0  0  0  0  0  0  0
    3.0600    1.5170    0.0000 C   0  0  0  0  0  0  0  0  0  0  0  0
   -2.0740    0.1110    0.0000 C   0  0  0  0  0  0  0  0  0  0  0  0
   -2.8000    1.4230    0.0000 C   0  0  0  0  0  0  0  0  0  0  0  0
   -4.2990    1.4510    0.0000 C   0  0  0  0  0  0  0  0  0  0  0  0
   -5.0730    0.1660    0.0000 C   0  0  0  0  0  0  0  0  0  0  0  0
   -4.3470   -1.1470    0.0000 C   0  0  0  0  0  0  0  0  0  0  0  0
   -2.8470   -1.1740    0.0000 C   0  0  0  0  0  0  0  0  0  0  0  0
    6.9430    0.6950    0.0000 H   0  0  0  0  0  0  0  0  0  0  0  0
    5.6030   -1.5300    0.0000 H   0  0  0  0  0  0  0  0  0  0  0  0
    2.9780   -2.9820    0.0000 H   0  0  0  0  0  0  0  0  0  0  0  0
   -0.2040   -2.5640    0.0000 H   0  0  0  0  0  0  0  0  0  0  0  0
    3.0880    3.0170    0.0000 H   0  0  0  0  0  0  0  0  0  0  0  0
   -2.0260    2.7080    0.0000 H   0  0  0  0  0  0  0  0  0  0  0  0
   -5.0250    2.7630    0.0000 H   0  0  0  0  0  0  0  0  0  0  0  0
   -6.5730    0.1930    0.0000 H   0  0  0  0  0  0  0  0  0  0  0  0
   -5.1210   -2.4320    0.0000 H   0  0  0  0  0  0  0  0  0  0  0  0
   -2.1210   -2.4870    0.0000 H   0  0  0  0  0  0  0  0  0  0  0  0
  1  2  1  0  0  0  0
  1 17  1  0  0  0  0
  2  3  2  0  0  0  0
  2 10  1  0  0  0  0
  3  4  1  0  0  0  0
  3 18  1  0  0  0  0
  4  5  2  0  0  0  0
  4 19  1  0  0  0  0
  5  6  1  0  0  0  0
  5  9  1  0  0  0  0
  6  7  1  0  0  0  0
  6 20  1  0  0  0  0
  7  8  2  0  0  0  0
  7 11  1  0  0  0  0
  8  9  1  0  0  0  0
  9 10  2  0  0  0  0
 10 21  1  0  0  0  0
 11 12  2  0  0  0  0
 11 16  1  0  0  0  0
 12 13  1  0  0  0  0
 12 22  1  0  0  0  0
 13 14  2  0  0  0  0
 13 23  1  0  0  0  0
 14 15  1  0  0  0  0
 14 24  1  0  0  0  0
 15 16  2  0  0  0  0
 15 25  1  0  0  0  0
 16 26  1  0  0  0  0
M  END
$$$$
