2D_structures\o44_MMV102270_2D.pdb
 OpenBabel02272422463D

 44 48  0  0  0  0  0  0  0  0999 V2000
    5.9030    0.4250    0.0000 C   0  0  0  0  0  0  0  0  0  0  0  0
    4.7410    1.3730    0.0000 O   0  0  0  0  0  0  0  0  0  0  0  0
    3.3390    0.8400    0.0000 C   0  0  0  0  0  0  0  0  0  0  0  0
    3.0990   -0.6410    0.0000 C   0  0  0  0  0  0  0  0  0  0  0  0
    1.6970   -1.1730    0.0000 C   0  0  0  0  0  0  0  0  0  0  0  0
    1.4570   -2.6540    0.0000 C   0  0  0  0  0  0  0  0  0  0  0  0
    2.6190   -3.6020    0.0000 O   0  0  0  0  0  0  0  0  0  0  0  0
    0.0550   -3.1870    0.0000 C   0  0  0  0  0  0  0  0  0  0  0  0
   -0.4880   -4.5850    0.0000 C   0  0  0  0  0  0  0  0  0  0  0  0
   -1.9860   -4.5010    0.0000 O   0  0  0  0  0  0  0  0  0  0  0  0
   -2.3690   -3.0510    0.0000 C   0  0  0  0  0  0  0  0  0  0  0  0
   -3.6770   -2.7200    0.0000 O   0  0  0  0  0  0  0  0  0  0  0  0
   -1.1080   -2.2390    0.0000 C   0  0  0  0  0  0  0  0  0  0  0  0
   -0.8680   -0.7580    0.0000 C   0  0  0  0  0  0  0  0  0  0  0  0
   -2.0300    0.1900    0.0000 C   0  0  0  0  0  0  0  0  0  0  0  0
   -1.7910    1.6710    0.0000 C   0  0  0  0  0  0  0  0  0  0  0  0
   -2.9530    2.6190    0.0000 C   0  0  0  0  0  0  0  0  0  0  0  0
   -4.3550    2.0860    0.0000 C   0  0  0  0  0  0  0  0  0  0  0  0
   -5.6890    2.7720    0.0000 O   0  0  0  0  0  0  0  0  0  0  0  0
   -6.7540    1.7150    0.0000 C   0  0  0  0  0  0  0  0  0  0  0  0
   -6.0770    0.3760    0.0000 O   0  0  0  0  0  0  0  0  0  0  0  0
   -4.5950    0.6060    0.0000 C   0  0  0  0  0  0  0  0  0  0  0  0
   -3.4330   -0.3420    0.0000 C   0  0  0  0  0  0  0  0  0  0  0  0
    0.5340   -0.2250    0.0000 C   0  0  0  0  0  0  0  0  0  0  0  0
    0.7740    1.2560    0.0000 C   0  0  0  0  0  0  0  0  0  0  0  0
    2.1760    1.7880    0.0000 C   0  0  0  0  0  0  0  0  0  0  0  0
    2.4160    3.2690    0.0000 O   0  0  0  0  0  0  0  0  0  0  0  0
    3.8180    3.8010    0.0000 C   0  0  0  0  0  0  0  0  0  0  0  0
    7.0660   -0.5230    0.0000 H   0  0  0  0  0  0  0  0  0  0  0  0
    6.8510    1.5870    0.0000 H   0  0  0  0  0  0  0  0  0  0  0  0
    4.9550   -0.7380    0.0000 H   0  0  0  0  0  0  0  0  0  0  0  0
    4.2610   -1.5890    0.0000 H   0  0  0  0  0  0  0  0  0  0  0  0
    2.3790   -5.0830    0.0000 H   0  0  0  0  0  0  0  0  0  0  0  0
    0.9600   -4.9780    0.0000 H   0  0  0  0  0  0  0  0  0  0  0  0
   -0.7280   -6.0660    0.0000 H   0  0  0  0  0  0  0  0  0  0  0  0
   -0.9200    2.1300    0.0000 H   0  0  0  0  0  0  0  0  0  0  0  0
   -2.7130    4.1000    0.0000 H   0  0  0  0  0  0  0  0  0  0  0  0
   -7.6940    2.8840    0.0000 H   0  0  0  0  0  0  0  0  0  0  0  0
   -8.0150    0.9030    0.0000 H   0  0  0  0  0  0  0  0  0  0  0  0
   -3.8090   -1.6390    0.0000 H   0  0  0  0  0  0  0  0  0  0  0  0
    0.0930    1.9660    0.0000 H   0  0  0  0  0  0  0  0  0  0  0  0
    5.2210    4.3340    0.0000 H   0  0  0  0  0  0  0  0  0  0  0  0
    3.2860    5.2040    0.0000 H   0  0  0  0  0  0  0  0  0  0  0  0
    4.3510    2.3990    0.0000 H   0  0  0  0  0  0  0  0  0  0  0  0
  1  2  1  0  0  0  0
  1 29  1  0  0  0  0
  1 30  1  0  0  0  0
  1 31  1  0  0  0  0
  2  3  1  0  0  0  0
  3  4  2  0  0  0  0
  3 26  1  0  0  0  0
  4  5  1  0  0  0  0
  4 32  1  0  0  0  0
  5  6  2  0  0  0  0
  5 24  1  0  0  0  0
  6  7  1  0  0  0  0
  6  8  1  0  0  0  0
  7 33  1  0  0  0  0
  8  9  1  0  0  0  0
  8 13  2  0  0  0  0
  9 10  1  0  0  0  0
  9 34  1  0  0  0  0
  9 35  1  0  0  0  0
 10 11  1  0  0  0  0
 11 12  2  0  0  0  0
 11 13  1  0  0  0  0
 13 14  1  0  0  0  0
 14 15  1  0  0  0  0
 14 24  2  0  0  0  0
 15 16  2  0  0  0  0
 15 23  1  0  0  0  0
 16 17  1  0  0  0  0
 16 36  1  0  0  0  0
 17 18  2  0  0  0  0
 17 37  1  0  0  0  0
 18 19  1  0  0  0  0
 18 22  1  0  0  0  0
 19 20  1  0  0  0  0
 20 21  1  0  0  0  0
 20 38  1  0  0  0  0
 20 39  1  0  0  0  0
 21 22  1  0  0  0  0
 22 23  2  0  0  0  0
 23 40  1  0  0  0  0
 24 25  1  0  0  0  0
 25 26  2  0  0  0  0
 25 41  1  0  0  0  0
 26 27  1  0  0  0  0
 27 28  1  0  0  0  0
 28 42  1  0  0  0  0
 28 43  1  0  0  0  0
 28 44  1  0  0  0  0
M  END
$$$$
