2D_structures\o45_MMV000008_2D.pdb
 OpenBabel02272422463D

 48 49  0  0  1  0  0  0  0  0999 V2000
   -6.6340   -1.4480    0.0000 C   0  0  0  0  0  0  0  0  0  0  0  0
   -5.4120   -0.5790    0.0000 C   0  0  0  0  0  0  0  0  0  0  0  0
   -4.1890    0.2910    0.0000 N   0  0  0  0  0  0  0  0  0  0  0  0
   -4.3310    1.7840    0.0000 C   0  0  0  0  0  0  0  0  0  0  0  0
   -4.4730    3.2770    0.0000 C   0  0  0  0  0  0  0  0  0  0  0  0
   -2.8250   -0.3330    0.0000 C   0  0  0  0  0  0  0  0  0  0  0  0
   -1.4610   -0.9570    0.0000 C   0  0  0  0  0  0  0  0  0  0  0  0
   -0.0970   -1.5810    0.0000 C   0  0  0  0  0  0  0  0  0  0  0  0
    1.2670   -2.2040    0.0000 C   0  0  1  0  0  0  0  0  0  0  0  0
    2.6310   -2.8280    0.0000 C   0  0  0  0  0  0  0  0  0  0  0  0
    1.8910   -0.8400    0.0000 N   0  0  0  0  0  0  0  0  0  0  0  0
    3.3840   -0.6980    0.0000 C   0  0  0  0  0  0  0  0  0  0  0  0
    4.2540   -1.9210    0.0000 C   0  0  0  0  0  0  0  0  0  0  0  0
    5.7470   -1.7790    0.0000 C   0  0  0  0  0  0  0  0  0  0  0  0
    6.3710   -0.4150    0.0000 N   0  0  0  0  0  0  0  0  0  0  0  0
    5.5010    0.8080    0.0000 C   0  0  0  0  0  0  0  0  0  0  0  0
    6.1250    2.1720    0.0000 C   0  0  0  0  0  0  0  0  0  0  0  0
    5.2560    3.3940    0.0000 C   0  0  0  0  0  0  0  0  0  0  0  0
    5.8790    4.7580    0.0000 Cl  0  0  0  0  0  0  0  0  0  0  0  0
    3.7620    3.2520    0.0000 C   0  0  0  0  0  0  0  0  0  0  0  0
    3.1390    1.8880    0.0000 C   0  0  0  0  0  0  0  0  0  0  0  0
    4.0080    0.6660    0.0000 C   0  0  0  0  0  0  0  0  0  0  0  0
   -7.8560   -2.3180    0.0000 H   0  0  0  0  0  0  0  0  0  0  0  0
   -5.7640   -2.6700    0.0000 H   0  0  0  0  0  0  0  0  0  0  0  0
   -7.5030   -0.2260    0.0000 H   0  0  0  0  0  0  0  0  0  0  0  0
   -4.5420   -1.8010    0.0000 H   0  0  0  0  0  0  0  0  0  0  0  0
   -6.2810    0.6440    0.0000 H   0  0  0  0  0  0  0  0  0  0  0  0
   -2.8380    1.9260    0.0000 H   0  0  0  0  0  0  0  0  0  0  0  0
   -5.8240    1.6420    0.0000 H   0  0  0  0  0  0  0  0  0  0  0  0
   -4.6150    4.7710    0.0000 H   0  0  0  0  0  0  0  0  0  0  0  0
   -5.9660    3.1360    0.0000 H   0  0  0  0  0  0  0  0  0  0  0  0
   -2.9800    3.4190    0.0000 H   0  0  0  0  0  0  0  0  0  0  0  0
   -3.4490   -1.6970    0.0000 H   0  0  0  0  0  0  0  0  0  0  0  0
   -2.2010    1.0310    0.0000 H   0  0  0  0  0  0  0  0  0  0  0  0
   -0.8370    0.4070    0.0000 H   0  0  0  0  0  0  0  0  0  0  0  0
   -2.0850   -2.3210    0.0000 H   0  0  0  0  0  0  0  0  0  0  0  0
    0.3560   -0.1510    0.0000 H   0  0  0  0  0  0  0  0  0  0  0  0
   -0.7210   -2.9450    0.0000 H   0  0  0  0  0  0  0  0  0  0  0  0
    0.6430   -3.5690    0.0000 H   0  0  0  0  0  0  0  0  0  0  0  0
    3.3100   -3.2460    0.0000 H   0  0  0  0  0  0  0  0  0  0  0  0
    3.3890   -1.8780    0.0000 H   0  0  0  0  0  0  0  0  0  0  0  0
    2.0080   -4.1920    0.0000 H   0  0  0  0  0  0  0  0  0  0  0  0
    1.1770    0.4790    0.0000 H   0  0  0  0  0  0  0  0  0  0  0  0
    4.0130   -2.6810    0.0000 H   0  0  0  0  0  0  0  0  0  0  0  0
    6.6170   -3.0010    0.0000 H   0  0  0  0  0  0  0  0  0  0  0  0
    7.6180    2.3140    0.0000 H   0  0  0  0  0  0  0  0  0  0  0  0
    2.8930    4.4740    0.0000 H   0  0  0  0  0  0  0  0  0  0  0  0
    1.6450    1.7460    0.0000 H   0  0  0  0  0  0  0  0  0  0  0  0
  1  2  1  0  0  0  0
  1 23  1  0  0  0  0
  1 24  1  0  0  0  0
  1 25  1  0  0  0  0
  2  3  1  0  0  0  0
  2 26  1  0  0  0  0
  2 27  1  0  0  0  0
  3  4  1  0  0  0  0
  3  6  1  0  0  0  0
  4  5  1  0  0  0  0
  4 28  1  0  0  0  0
  4 29  1  0  0  0  0
  5 30  1  0  0  0  0
  5 31  1  0  0  0  0
  5 32  1  0  0  0  0
  6  7  1  0  0  0  0
  6 33  1  0  0  0  0
  6 34  1  0  0  0  0
  7  8  1  0  0  0  0
  7 35  1  0  0  0  0
  7 36  1  0  0  0  0
  8  9  1  0  0  0  0
  8 37  1  0  0  0  0
  8 38  1  0  0  0  0
  9 10  1  0  0  0  0
  9 11  1  0  0  0  0
  9 39  1  1  0  0  0
 10 40  1  0  0  0  0
 10 41  1  0  0  0  0
 10 42  1  0  0  0  0
 11 12  1  0  0  0  0
 11 43  1  0  0  0  0
 12 13  2  0  0  0  0
 12 22  1  0  0  0  0
 13 14  1  0  0  0  0
 13 44  1  0  0  0  0
 14 15  2  0  0  0  0
 14 45  1  0  0  0  0
 15 16  1  0  0  0  0
 16 17  2  0  0  0  0
 16 22  1  0  0  0  0
 17 18  1  0  0  0  0
 17 46  1  0  0  0  0
 18 19  1  0  0  0  0
 18 20  2  0  0  0  0
 20 21  1  0  0  0  0
 20 47  1  0  0  0  0
 21 22  2  0  0  0  0
 21 48  1  0  0  0  0
M  END
$$$$
