2D_structures\o46_MMV002260_2D.pdb
 OpenBabel02272422463D

 36 38  0  0  0  0  0  0  0  0999 V2000
   -0.0040   -4.2740    0.0000 C   0  0  0  0  0  0  0  0  0  0  0  0
    1.1430   -3.3070    0.0000 C   0  0  0  0  0  0  0  0  0  0  0  0
    2.5990   -3.6670    0.0000 O   0  0  0  0  0  0  0  0  0  0  0  0
    3.3910   -2.3930    0.0000 N   0  0  0  0  0  0  0  0  0  0  0  0
    2.4250   -1.2460    0.0000 C   0  0  0  0  0  0  0  0  0  0  0  0
    2.7840    0.2100    0.0000 C   0  0  0  0  0  0  0  0  0  0  0  0
    4.2250    0.6270    0.0000 C   0  0  0  0  0  0  0  0  0  0  0  0
    4.5850    2.0830    0.0000 C   0  0  0  0  0  0  0  0  0  0  0  0
    3.5030    3.1230    0.0000 C   0  0  0  0  0  0  0  0  0  0  0  0
    2.0630    2.7060    0.0000 C   0  0  0  0  0  0  0  0  0  0  0  0
    1.7030    1.2500    0.0000 C   0  0  0  0  0  0  0  0  0  0  0  0
    1.0350   -1.8110    0.0000 C   0  0  0  0  0  0  0  0  0  0  0  0
   -0.2390   -1.0190    0.0000 C   0  0  0  0  0  0  0  0  0  0  0  0
   -1.5620   -1.7260    0.0000 C   0  0  0  0  0  0  0  0  0  0  0  0
   -2.8350   -0.9340    0.0000 C   0  0  0  0  0  0  0  0  0  0  0  0
   -2.7860    0.5650    0.0000 C   0  0  0  0  0  0  0  0  0  0  0  0
   -1.4640    1.2720    0.0000 C   0  0  0  0  0  0  0  0  0  0  0  0
   -0.1900    0.4800    0.0000 C   0  0  0  0  0  0  0  0  0  0  0  0
   -4.0600    1.3570    0.0000 S   0  0  0  0  0  0  0  0  0  0  0  0
   -3.2680    2.6310    0.0000 O   0  0  0  0  0  0  0  0  0  0  0  0
   -4.8520    0.0830    0.0000 O   0  0  0  0  0  0  0  0  0  0  0  0
   -5.3340    2.1490    0.0000 N   0  0  0  0  0  0  0  0  0  0  0  0
   -1.1510   -5.2400    0.0000 H   0  0  0  0  0  0  0  0  0  0  0  0
   -0.8940   -3.4470    0.0000 H   0  0  0  0  0  0  0  0  0  0  0  0
    0.9630   -5.4210    0.0000 H   0  0  0  0  0  0  0  0  0  0  0  0
    5.3070   -0.4120    0.0000 H   0  0  0  0  0  0  0  0  0  0  0  0
    6.0260    2.5000    0.0000 H   0  0  0  0  0  0  0  0  0  0  0  0
    3.8630    4.5790    0.0000 H   0  0  0  0  0  0  0  0  0  0  0  0
    0.9810    3.7460    0.0000 H   0  0  0  0  0  0  0  0  0  0  0  0
    0.9060    1.2200    0.0000 H   0  0  0  0  0  0  0  0  0  0  0  0
   -1.7490   -2.9260    0.0000 H   0  0  0  0  0  0  0  0  0  0  0  0
   -4.1580   -1.6410    0.0000 H   0  0  0  0  0  0  0  0  0  0  0  0
   -1.4150    2.7720    0.0000 H   0  0  0  0  0  0  0  0  0  0  0  0
    0.4010    1.0150    0.0000 H   0  0  0  0  0  0  0  0  0  0  0  0
   -6.6570    1.4420    0.0000 H   0  0  0  0  0  0  0  0  0  0  0  0
   -5.2850    3.6490    0.0000 H   0  0  0  0  0  0  0  0  0  0  0  0
  1  2  1  0  0  0  0
  1 23  1  0  0  0  0
  1 24  1  0  0  0  0
  1 25  1  0  0  0  0
  2  3  1  0  0  0  0
  2 12  2  0  0  0  0
  3  4  1  0  0  0  0
  4  5  2  0  0  0  0
  5  6  1  0  0  0  0
  5 12  1  0  0  0  0
  6  7  2  0  0  0  0
  6 11  1  0  0  0  0
  7  8  1  0  0  0  0
  7 26  1  0  0  0  0
  8  9  2  0  0  0  0
  8 27  1  0  0  0  0
  9 10  1  0  0  0  0
  9 28  1  0  0  0  0
 10 11  2  0  0  0  0
 10 29  1  0  0  0  0
 11 30  1  0  0  0  0
 12 13  1  0  0  0  0
 13 14  2  0  0  0  0
 13 18  1  0  0  0  0
 14 15  1  0  0  0  0
 14 31  1  0  0  0  0
 15 16  2  0  0  0  0
 15 32  1  0  0  0  0
 16 17  1  0  0  0  0
 16 19  1  0  0  0  0
 17 18  2  0  0  0  0
 17 33  1  0  0  0  0
 18 34  1  0  0  0  0
 19 20  2  0  0  0  0
 19 21  2  0  0  0  0
 19 22  1  0  0  0  0
 22 35  1  0  0  0  0
 22 36  1  0  0  0  0
M  END
$$$$
