2D_structures\o47_MMV102833_2D.pdb
 OpenBabel02272422463D

 33 36  0  0  0  0  0  0  0  0999 V2000
    9.1310   -1.3230    0.0000 Cl  0  0  0  0  0  0  0  0  0  0  0  0
    7.7100   -0.8410    0.0000 C   0  0  0  0  0  0  0  0  0  0  0  0
    6.5830   -1.8310    0.0000 C   0  0  0  0  0  0  0  0  0  0  0  0
    5.1620   -1.3500    0.0000 C   0  0  0  0  0  0  0  0  0  0  0  0
    4.8690    0.1210    0.0000 C   0  0  0  0  0  0  0  0  0  0  0  0
    5.9960    1.1110    0.0000 C   0  0  0  0  0  0  0  0  0  0  0  0
    7.4170    0.6300    0.0000 C   0  0  0  0  0  0  0  0  0  0  0  0
    3.4480    0.6030    0.0000 C   0  0  0  0  0  0  0  0  0  0  0  0
    2.2240   -0.2640    0.0000 O   0  0  0  0  0  0  0  0  0  0  0  0
    1.0210    0.6330    0.0000 C   0  0  0  0  0  0  0  0  0  0  0  0
   -0.4110    0.1870    0.0000 N   0  0  0  0  0  0  0  0  0  0  0  0
   -1.5130    1.2050    0.0000 C   0  0  0  0  0  0  0  0  0  0  0  0
   -1.1830    2.6680    0.0000 O   0  0  0  0  0  0  0  0  0  0  0  0
   -2.9450    0.7590    0.0000 C   0  0  0  0  0  0  0  0  0  0  0  0
   -3.4270   -0.6620    0.0000 N   0  0  0  0  0  0  0  0  0  0  0  0
   -4.9260   -0.6430    0.0000 C   0  0  0  0  0  0  0  0  0  0  0  0
   -5.9440   -1.7450    0.0000 C   0  0  0  0  0  0  0  0  0  0  0  0
   -7.4070   -1.4150    0.0000 C   0  0  0  0  0  0  0  0  0  0  0  0
   -7.8530    0.0170    0.0000 C   0  0  0  0  0  0  0  0  0  0  0  0
   -6.8350    1.1190    0.0000 C   0  0  0  0  0  0  0  0  0  0  0  0
   -5.3720    0.7890    0.0000 C   0  0  0  0  0  0  0  0  0  0  0  0
   -4.1480    1.6560    0.0000 S   0  0  0  0  0  0  0  0  0  0  0  0
    1.5030    2.0540    0.0000 N   0  0  0  0  0  0  0  0  0  0  0  0
    3.0030    2.0350    0.0000 N   0  0  0  0  0  0  0  0  0  0  0  0
    6.8770   -3.3020    0.0000 H   0  0  0  0  0  0  0  0  0  0  0  0
    4.0350   -2.3390    0.0000 H   0  0  0  0  0  0  0  0  0  0  0  0
    5.7020    2.5820    0.0000 H   0  0  0  0  0  0  0  0  0  0  0  0
    8.5440    1.6190    0.0000 H   0  0  0  0  0  0  0  0  0  0  0  0
   -0.7410   -1.2760    0.0000 H   0  0  0  0  0  0  0  0  0  0  0  0
   -5.4980   -3.1770    0.0000 H   0  0  0  0  0  0  0  0  0  0  0  0
   -8.4250   -2.5170    0.0000 H   0  0  0  0  0  0  0  0  0  0  0  0
   -9.3160    0.3470    0.0000 H   0  0  0  0  0  0  0  0  0  0  0  0
   -7.2810    2.5520    0.0000 H   0  0  0  0  0  0  0  0  0  0  0  0
  1  2  1  0  0  0  0
  2  3  2  0  0  0  0
  2  7  1  0  0  0  0
  3  4  1  0  0  0  0
  3 25  1  0  0  0  0
  4  5  2  0  0  0  0
  4 26  1  0  0  0  0
  5  6  1  0  0  0  0
  5  8  1  0  0  0  0
  6  7  2  0  0  0  0
  6 27  1  0  0  0  0
  7 28  1  0  0  0  0
  8  9  1  0  0  0  0
  8 24  2  0  0  0  0
  9 10  1  0  0  0  0
 10 11  1  0  0  0  0
 10 23  2  0  0  0  0
 11 12  1  0  0  0  0
 11 29  1  0  0  0  0
 12 13  2  0  0  0  0
 12 14  1  0  0  0  0
 14 15  2  0  0  0  0
 14 22  1  0  0  0  0
 15 16  1  0  0  0  0
 16 17  2  0  0  0  0
 16 21  1  0  0  0  0
 17 18  1  0  0  0  0
 17 30  1  0  0  0  0
 18 19  2  0  0  0  0
 18 31  1  0  0  0  0
 19 20  1  0  0  0  0
 19 32  1  0  0  0  0
 20 21  2  0  0  0  0
 20 33  1  0  0  0  0
 21 22  1  0  0  0  0
 23 24  1  0  0  0  0
M  END
$$$$
