2D_structures\o49_MMV1578577_2D.pdb
 OpenBabel02272422463D

 44 48  0  0  1  0  0  0  0  0999 V2000
   -0.2500    2.6120    0.0000 O   0  0  0  0  0  0  0  0  0  0  0  0
   -0.6430    1.1640    0.0000 C   0  0  0  0  0  0  0  0  0  0  0  0
    0.4150    0.1000    0.0000 N   0  0  0  0  0  0  0  0  0  0  0  0
    1.8650    0.4840    0.0000 C   0  0  1  0  0  0  0  0  0  0  0  0
    2.9220   -0.5800    0.0000 C   0  0  0  0  0  0  0  0  0  0  0  0
    4.3720   -0.1960    0.0000 C   0  0  1  0  0  0  0  0  0  0  0  0
    4.7650    1.2520    0.0000 C   0  0  0  0  0  0  0  0  0  0  0  0
    3.7070    2.3160    0.0000 C   0  0  1  0  0  0  0  0  0  0  0  0
    2.1460   -0.5770    0.0000 C   0  0  0  0  0  0  0  0  0  0  0  0
    2.5300   -2.0270    0.0000 C   0  0  1  0  0  0  0  0  0  0  0  0
    3.9800   -1.6440    0.0000 C   0  0  0  0  0  0  0  0  0  0  0  0
    1.4720   -0.9640    0.0000 C   0  0  0  0  0  0  0  0  0  0  0  0
    2.2570    1.9320    0.0000 C   0  0  0  0  0  0  0  0  0  0  0  0
   -2.0930    0.7800    0.0000 C   0  0  0  0  0  0  0  0  0  0  0  0
   -2.6340   -0.6190    0.0000 C   0  0  0  0  0  0  0  0  0  0  0  0
   -4.1320   -0.5360    0.0000 C   0  0  0  0  0  0  0  0  0  0  0  0
   -5.1960   -1.5930    0.0000 C   0  0  0  0  0  0  0  0  0  0  0  0
   -6.6440   -1.2010    0.0000 C   0  0  0  0  0  0  0  0  0  0  0  0
   -7.0280    0.2490    0.0000 C   0  0  0  0  0  0  0  0  0  0  0  0
   -5.9640    1.3070    0.0000 C   0  0  0  0  0  0  0  0  0  0  0  0
   -4.5160    0.9140    0.0000 C   0  0  0  0  0  0  0  0  0  0  0  0
   -3.2560    1.7270    0.0000 N   0  0  0  0  0  0  0  0  0  0  0  0
   -0.1510   -1.2890    0.0000 H   0  0  0  0  0  0  0  0  0  0  0  0
    3.0890   -1.4500    0.0000 H   0  0  0  0  0  0  0  0  0  0  0  0
    2.3980   -1.1800    0.0000 H   0  0  0  0  0  0  0  0  0  0  0  0
    5.5520   -1.1230    0.0000 H   0  0  0  0  0  0  0  0  0  0  0  0
    5.6290    2.4780    0.0000 H   0  0  0  0  0  0  0  0  0  0  0  0
    6.1220    0.6140    0.0000 H   0  0  0  0  0  0  0  0  0  0  0  0
    4.1000    3.7630    0.0000 H   0  0  0  0  0  0  0  0  0  0  0  0
    0.7180   -1.0370    0.0000 H   0  0  0  0  0  0  0  0  0  0  0  0
    1.6130    0.8250    0.0000 H   0  0  0  0  0  0  0  0  0  0  0  0
    2.1370   -3.4750    0.0000 H   0  0  0  0  0  0  0  0  0  0  0  0
    4.1060   -3.1380    0.0000 H   0  0  0  0  0  0  0  0  0  0  0  0
    5.4460   -1.9600    0.0000 H   0  0  0  0  0  0  0  0  0  0  0  0
    0.0010   -0.6730    0.0000 H   0  0  0  0  0  0  0  0  0  0  0  0
    0.6080   -2.1900    0.0000 H   0  0  0  0  0  0  0  0  0  0  0  0
    0.7630    2.0670    0.0000 H   0  0  0  0  0  0  0  0  0  0  0  0
    2.1310    3.4260    0.0000 H   0  0  0  0  0  0  0  0  0  0  0  0
   -1.8210   -1.8790    0.0000 H   0  0  0  0  0  0  0  0  0  0  0  0
   -4.8120   -3.0440    0.0000 H   0  0  0  0  0  0  0  0  0  0  0  0
   -7.7070   -2.2590    0.0000 H   0  0  0  0  0  0  0  0  0  0  0  0
   -8.4750    0.6420    0.0000 H   0  0  0  0  0  0  0  0  0  0  0  0
   -6.3480    2.7570    0.0000 H   0  0  0  0  0  0  0  0  0  0  0  0
   -3.1730    3.2250    0.0000 H   0  0  0  0  0  0  0  0  0  0  0  0
  1  2  2  0  0  0  0
  2  3  1  0  0  0  0
  2 14  1  0  0  0  0
  3 23  1  0  0  0  0
  4  3  1  1  0  0  0
  4  5  1  0  0  0  0
  4 12  1  0  0  0  0
  4 13  1  0  0  0  0
  5  6  1  0  0  0  0
  5 24  1  0  0  0  0
  5 25  1  0  0  0  0
  6  7  1  0  0  0  0
  6 11  1  0  0  0  0
  6 26  1  6  0  0  0
  7  8  1  0  0  0  0
  7 27  1  0  0  0  0
  7 28  1  0  0  0  0
  8  9  1  0  0  0  0
  8 13  1  0  0  0  0
  8 29  1  6  0  0  0
  9 10  1  0  0  0  0
  9 30  1  0  0  0  0
  9 31  1  0  0  0  0
 10 11  1  0  0  0  0
 10 12  1  0  0  0  0
 10 32  1  6  0  0  0
 11 33  1  0  0  0  0
 11 34  1  0  0  0  0
 12 35  1  0  0  0  0
 12 36  1  0  0  0  0
 13 37  1  0  0  0  0
 13 38  1  0  0  0  0
 14 15  2  0  0  0  0
 14 22  1  0  0  0  0
 15 16  1  0  0  0  0
 15 39  1  0  0  0  0
 16 17  2  0  0  0  0
 16 21  1  0  0  0  0
 17 18  1  0  0  0  0
 17 40  1  0  0  0  0
 18 19  2  0  0  0  0
 18 41  1  0  0  0  0
 19 20  1  0  0  0  0
 19 42  1  0  0  0  0
 20 21  2  0  0  0  0
 20 43  1  0  0  0  0
 21 22  1  0  0  0  0
 22 44  1  0  0  0  0
M  END
$$$$
