2D_structures\o4_MMV1633674_2D.pdb
 OpenBabel02272422463D

 83 87  0  0  1  0  0  0  0  0999 V2000
   -0.6510    1.4770    0.0000 C   0  0  0  0  0  0  0  0  0  0  0  0
   -1.7400    0.4460    0.0000 C   0  0  1  0  0  0  0  0  0  0  0  0
   -2.4120   -0.8950    0.0000 C   0  0  0  0  0  0  0  0  0  0  0  0
   -3.9090   -0.9850    0.0000 C   0  0  0  0  0  0  0  0  0  0  0  0
   -4.7350    0.2680    0.0000 C   0  0  1  0  0  0  0  0  0  0  0  0
   -6.2180    0.4910    0.0000 C   0  0  0  0  0  0  0  0  0  0  0  0
   -6.4640    1.9710    0.0000 C   0  0  0  0  0  0  0  0  0  0  0  0
   -5.1320    2.6620    0.0000 C   0  0  0  0  0  0  0  0  0  0  0  0
   -4.9080    4.1450    0.0000 O   0  0  0  0  0  0  0  0  0  0  0  0
   -4.0640    1.6090    0.0000 C   0  0  1  0  0  0  0  0  0  0  0  0
   -2.5660    1.6980    0.0000 C   0  0  1  0  0  0  0  0  0  0  0  0
   -1.8950    3.0400    0.0000 C   0  0  0  0  0  0  0  0  0  0  0  0
   -1.9360    1.1900    0.0000 C   0  0  1  0  0  0  0  0  0  0  0  0
   -2.7430    0.8940    0.0000 C   0  0  0  0  0  0  0  0  0  0  0  0
   -2.6400    0.4010    0.0000 C   0  0  1  0  0  0  0  0  0  0  0  0
   -0.3180   -2.2520    0.0000 C   0  0  0  0  0  0  0  0  0  0  0  0
   -1.8430   -3.2580    0.0000 C   0  0  0  0  0  0  0  0  0  0  0  0
   -0.6010   -4.0990    0.0000 C   0  0  0  0  0  0  0  0  0  0  0  0
   -3.3490    0.2180    0.0000 C   0  0  1  0  0  0  0  0  0  0  0  0
   -4.3420   -3.0280    0.0000 O   0  0  0  0  0  0  0  0  0  0  0  0
   -3.3210   -0.0470    0.0000 C   0  0  1  0  0  0  0  0  0  0  0  0
   -5.9470   -1.0980    0.0000 C   0  0  0  0  0  0  0  0  0  0  0  0
    0.3170    0.8460    0.0000 O   0  0  0  0  0  0  0  0  0  0  0  0
    1.1580    2.0890    0.0000 C   0  0  0  0  0  0  0  0  0  0  0  0
    0.5020    3.4380    0.0000 O   0  0  0  0  0  0  0  0  0  0  0  0
    2.6540    1.9820    0.0000 C   0  0  0  0  0  0  0  0  0  0  0  0
    4.1500    1.8750    0.0000 S   0  0  0  0  0  0  0  0  0  0  0  0
    4.8050    0.5260    0.0000 C   0  0  1  0  0  0  0  0  0  0  0  0
    6.0200    1.4060    0.0000 C   0  0  0  0  0  0  0  0  0  0  0  0
    7.3900    0.7930    0.0000 C   0  0  1  0  0  0  0  0  0  0  0  0
    8.5030   -0.2120    0.0000 C   0  0  0  0  0  0  0  0  0  0  0  0
    7.8910   -1.5810    0.0000 C   0  0  0  0  0  0  0  0  0  0  0  0
    6.3990   -1.4220    0.0000 C   0  0  1  0  0  0  0  0  0  0  0  0
    4.9600   -0.9660    0.0000 C   0  0  0  0  0  0  0  0  0  0  0  0
    6.0900    0.0450    0.0000 N   0  0  0  0  0  0  0  0  0  0  0  0
    4.7200    0.6570    0.0000 C   0  0  0  0  0  0  0  0  0  0  0  0
    0.4390    2.5080    0.0000 H   0  0  0  0  0  0  0  0  0  0  0  0
    0.7020    0.8290    0.0000 H   0  0  0  0  0  0  0  0  0  0  0  0
   -1.3870    2.7840    0.0000 H   0  0  0  0  0  0  0  0  0  0  0  0
   -0.6540   -0.5880    0.0000 H   0  0  0  0  0  0  0  0  0  0  0  0
   -0.9740   -1.3230    0.0000 H   0  0  0  0  0  0  0  0  0  0  0  0
   -2.2180   -2.3830    0.0000 H   0  0  0  0  0  0  0  0  0  0  0  0
   -3.2180   -2.3160    0.0000 H   0  0  0  0  0  0  0  0  0  0  0  0
   -5.2860   -1.5810    0.0000 H   0  0  0  0  0  0  0  0  0  0  0  0
   -6.6470   -0.9460    0.0000 H   0  0  0  0  0  0  0  0  0  0  0  0
   -7.7160    0.4020    0.0000 H   0  0  0  0  0  0  0  0  0  0  0  0
   -7.9100    1.5730    0.0000 H   0  0  0  0  0  0  0  0  0  0  0  0
   -7.0110    3.3680    0.0000 H   0  0  0  0  0  0  0  0  0  0  0  0
   -3.7110    3.0670    0.0000 H   0  0  0  0  0  0  0  0  0  0  0  0
   -1.2240    4.3810    0.0000 H   0  0  0  0  0  0  0  0  0  0  0  0
   -0.4820    2.5370    0.0000 H   0  0  0  0  0  0  0  0  0  0  0  0
   -3.1450    3.8690    0.0000 H   0  0  0  0  0  0  0  0  0  0  0  0
   -0.5200    2.3000    0.0000 H   0  0  0  0  0  0  0  0  0  0  0  0
    0.4280   -1.2260    0.0000 H   0  0  0  0  0  0  0  0  0  0  0  0
    0.5990   -0.3910    0.0000 H   0  0  0  0  0  0  0  0  0  0  0  0
    1.1480   -2.5660    0.0000 H   0  0  0  0  0  0  0  0  0  0  0  0
   -0.4510   -3.7470    0.0000 H   0  0  0  0  0  0  0  0  0  0  0  0
    0.5010   -0.9960    0.0000 H   0  0  0  0  0  0  0  0  0  0  0  0
   -3.1020   -4.0730    0.0000 H   0  0  0  0  0  0  0  0  0  0  0  0
   -0.7070   -5.5950    0.0000 H   0  0  0  0  0  0  0  0  0  0  0  0
    0.8180   -3.6130    0.0000 H   0  0  0  0  0  0  0  0  0  0  0  0
   -3.0800   -3.5400    0.0000 H   0  0  0  0  0  0  0  0  0  0  0  0
   -4.0580   -4.5010    0.0000 H   0  0  0  0  0  0  0  0  0  0  0  0
   -5.2700   -2.4620    0.0000 H   0  0  0  0  0  0  0  0  0  0  0  0
   -7.4430   -0.9920    0.0000 H   0  0  0  0  0  0  0  0  0  0  0  0
   -6.0540   -2.5950    0.0000 H   0  0  0  0  0  0  0  0  0  0  0  0
   -6.2060    0.3790    0.0000 H   0  0  0  0  0  0  0  0  0  0  0  0
    2.7610    3.4780    0.0000 H   0  0  0  0  0  0  0  0  0  0  0  0
    2.3650    0.5100    0.0000 H   0  0  0  0  0  0  0  0  0  0  0  0
    3.4240   -0.0580    0.0000 H   0  0  0  0  0  0  0  0  0  0  0  0
    6.7030    2.7410    0.0000 H   0  0  0  0  0  0  0  0  0  0  0  0
    5.0780    2.5730    0.0000 H   0  0  0  0  0  0  0  0  0  0  0  0
    7.7290    2.2540    0.0000 H   0  0  0  0  0  0  0  0  0  0  0  0
    9.3860    1.0000    0.0000 H   0  0  0  0  0  0  0  0  0  0  0  0
    9.8010   -0.9640    0.0000 H   0  0  0  0  0  0  0  0  0  0  0  0
    9.3170   -2.0470    0.0000 H   0  0  0  0  0  0  0  0  0  0  0  0
    7.5770   -3.0480    0.0000 H   0  0  0  0  0  0  0  0  0  0  0  0
    5.5370   -2.6500    0.0000 H   0  0  0  0  0  0  0  0  0  0  0  0
    3.4620   -1.0430    0.0000 H   0  0  0  0  0  0  0  0  0  0  0  0
    4.4200   -2.3660    0.0000 H   0  0  0  0  0  0  0  0  0  0  0  0
    3.3510    1.2700    0.0000 H   0  0  0  0  0  0  0  0  0  0  0  0
    5.1610    2.0910    0.0000 H   0  0  0  0  0  0  0  0  0  0  0  0
    3.9460   -0.6270    0.0000 H   0  0  0  0  0  0  0  0  0  0  0  0
  1  2  1  0  0  0  0
  1 37  1  0  0  0  0
  1 38  1  0  0  0  0
  1 39  1  0  0  0  0
  2  3  1  0  0  0  0
  2 11  1  0  0  0  0
  2 40  1  6  0  0  0
  3  4  1  0  0  0  0
  3 41  1  0  0  0  0
  3 42  1  0  0  0  0
  4 43  1  0  0  0  0
  4 44  1  0  0  0  0
  5  4  1  1  0  0  0
  5  6  1  0  0  0  0
  5 10  1  0  0  0  0
  5 21  1  0  0  0  0
  6  7  1  0  0  0  0
  6 45  1  0  0  0  0
  6 46  1  0  0  0  0
  7  8  1  0  0  0  0
  7 47  1  0  0  0  0
  7 48  1  0  0  0  0
  8  9  2  0  0  0  0
  8 10  1  0  0  0  0
 10 11  1  0  0  0  0
 10 49  1  6  0  0  0
 11 12  1  1  0  0  0
 11 13  1  0  0  0  0
 12 50  1  0  0  0  0
 12 51  1  0  0  0  0
 12 52  1  0  0  0  0
 13 14  1  0  0  0  0
 13 23  1  0  0  0  0
 13 53  1  1  0  0  0
 14 15  1  0  0  0  0
 14 54  1  0  0  0  0
 14 55  1  0  0  0  0
 15 16  1  0  0  0  0
 15 17  1  1  0  0  0
 15 19  1  0  0  0  0
 16 56  1  0  0  0  0
 16 57  1  0  0  0  0
 16 58  1  0  0  0  0
 17 18  2  0  0  0  0
 17 59  1  0  0  0  0
 18 60  1  0  0  0  0
 18 61  1  0  0  0  0
 19 20  1  0  0  0  0
 19 21  1  0  0  0  0
 19 62  1  1  0  0  0
 20 63  1  0  0  0  0
 21 22  1  0  0  0  0
 21 64  1  6  0  0  0
 22 65  1  0  0  0  0
 22 66  1  0  0  0  0
 22 67  1  0  0  0  0
 23 24  1  0  0  0  0
 24 25  2  0  0  0  0
 24 26  1  0  0  0  0
 26 27  1  0  0  0  0
 26 68  1  0  0  0  0
 26 69  1  0  0  0  0
 27 28  1  0  0  0  0
 28 29  1  0  0  0  0
 28 34  1  0  0  0  0
 28 70  1  6  0  0  0
 29 30  1  0  0  0  0
 29 71  1  0  0  0  0
 29 72  1  0  0  0  0
 30 31  1  0  0  0  0
 30 35  1  0  0  0  0
 30 73  1  6  0  0  0
 31 32  1  0  0  0  0
 31 74  1  0  0  0  0
 31 75  1  0  0  0  0
 32 33  1  0  0  0  0
 32 76  1  0  0  0  0
 32 77  1  0  0  0  0
 33 34  1  0  0  0  0
 33 35  1  0  0  0  0
 33 78  1  6  0  0  0
 34 79  1  0  0  0  0
 34 80  1  0  0  0  0
 35 36  1  0  0  0  0
 36 81  1  0  0  0  0
 36 82  1  0  0  0  0
 36 83  1  0  0  0  0
M  END
$$$$
