2D_structures\o50_MMV233495_2D.pdb
 OpenBabel02272422463D

 35 37  0  0  0  0  0  0  0  0999 V2000
   -0.6870    0.8800    0.0000 S   0  0  0  0  0  0  0  0  0  0  0  0
   -0.3810   -0.5880    0.0000 O   0  0  0  0  0  0  0  0  0  0  0  0
   -0.9940    2.3480    0.0000 O   0  0  0  0  0  0  0  0  0  0  0  0
    0.7810    1.1870    0.0000 N   0  0  0  0  0  0  0  0  0  0  0  0
    1.7810    0.0690    0.0000 C   0  0  0  0  0  0  0  0  0  0  0  0
    1.3120   -1.3560    0.0000 C   0  0  0  0  0  0  0  0  0  0  0  0
    2.3120   -2.4740    0.0000 C   0  0  0  0  0  0  0  0  0  0  0  0
    3.7810   -2.1670    0.0000 C   0  0  0  0  0  0  0  0  0  0  0  0
    4.2490   -0.7420    0.0000 C   0  0  0  0  0  0  0  0  0  0  0  0
    5.7170   -0.4350    0.0000 C   0  0  0  0  0  0  0  0  0  0  0  0
    6.1860    0.9900    0.0000 C   0  0  0  0  0  0  0  0  0  0  0  0
    5.1860    2.1080    0.0000 C   0  0  0  0  0  0  0  0  0  0  0  0
    3.7170    1.8010    0.0000 N   0  0  0  0  0  0  0  0  0  0  0  0
    3.2490    0.3760    0.0000 C   0  0  0  0  0  0  0  0  0  0  0  0
   -2.1560    0.5730    0.0000 C   0  0  0  0  0  0  0  0  0  0  0  0
   -3.1560    1.6910    0.0000 C   0  0  0  0  0  0  0  0  0  0  0  0
   -4.6240    1.3840    0.0000 C   0  0  0  0  0  0  0  0  0  0  0  0
   -5.0920   -0.0410    0.0000 C   0  0  0  0  0  0  0  0  0  0  0  0
   -6.5610   -0.3480    0.0000 C   0  0  0  0  0  0  0  0  0  0  0  0
   -4.0920   -1.1590    0.0000 C   0  0  0  0  0  0  0  0  0  0  0  0
   -2.6240   -0.8520    0.0000 C   0  0  0  0  0  0  0  0  0  0  0  0
    1.2490    2.6120    0.0000 H   0  0  0  0  0  0  0  0  0  0  0  0
   -0.1560   -1.6630    0.0000 H   0  0  0  0  0  0  0  0  0  0  0  0
    1.8440   -3.8990    0.0000 H   0  0  0  0  0  0  0  0  0  0  0  0
    4.7810   -3.2850    0.0000 H   0  0  0  0  0  0  0  0  0  0  0  0
    6.7170   -1.5530    0.0000 H   0  0  0  0  0  0  0  0  0  0  0  0
    7.6540    1.2970    0.0000 H   0  0  0  0  0  0  0  0  0  0  0  0
    5.6540    3.5330    0.0000 H   0  0  0  0  0  0  0  0  0  0  0  0
   -2.6870    3.1160    0.0000 H   0  0  0  0  0  0  0  0  0  0  0  0
   -5.6240    2.5020    0.0000 H   0  0  0  0  0  0  0  0  0  0  0  0
   -8.0290   -0.6550    0.0000 H   0  0  0  0  0  0  0  0  0  0  0  0
   -6.2540   -1.8160    0.0000 H   0  0  0  0  0  0  0  0  0  0  0  0
   -6.8670    1.1210    0.0000 H   0  0  0  0  0  0  0  0  0  0  0  0
   -4.5610   -2.5840    0.0000 H   0  0  0  0  0  0  0  0  0  0  0  0
   -1.6240   -1.9700    0.0000 H   0  0  0  0  0  0  0  0  0  0  0  0
  1  2  2  0  0  0  0
  1  3  2  0  0  0  0
  1  4  1  0  0  0  0
  1 15  1  0  0  0  0
  4  5  1  0  0  0  0
  4 22  1  0  0  0  0
  5  6  2  0  0  0  0
  5 14  1  0  0  0  0
  6  7  1  0  0  0  0
  6 23  1  0  0  0  0
  7  8  2  0  0  0  0
  7 24  1  0  0  0  0
  8  9  1  0  0  0  0
  8 25  1  0  0  0  0
  9 10  2  0  0  0  0
  9 14  1  0  0  0  0
 10 11  1  0  0  0  0
 10 26  1  0  0  0  0
 11 12  2  0  0  0  0
 11 27  1  0  0  0  0
 12 13  1  0  0  0  0
 12 28  1  0  0  0  0
 13 14  2  0  0  0  0
 15 16  2  0  0  0  0
 15 21  1  0  0  0  0
 16 17  1  0  0  0  0
 16 29  1  0  0  0  0
 17 18  2  0  0  0  0
 17 30  1  0  0  0  0
 18 19  1  0  0  0  0
 18 20  1  0  0  0  0
 19 31  1  0  0  0  0
 19 32  1  0  0  0  0
 19 33  1  0  0  0  0
 20 21  2  0  0  0  0
 20 34  1  0  0  0  0
 21 35  1  0  0  0  0
M  END
$$$$
