2D_structures\o51_MMV002676_2D.pdb
 OpenBabel02272422463D

 51 53  0  0  1  0  0  0  0  0999 V2000
   -4.7880   -1.7450    0.0000 C   0  0  0  0  0  0  0  0  0  0  0  0
   -4.5770   -0.2600    0.0000 N   0  3  0  0  0  0  0  0  0  0  0  0
   -6.0760   -0.3100    0.0000 C   0  0  0  0  0  0  0  0  0  0  0  0
   -4.8860    1.2080    0.0000 C   0  0  0  0  0  0  0  0  0  0  0  0
   -3.7700    2.2100    0.0000 C   0  0  0  0  0  0  0  0  0  0  0  0
   -2.3440    1.7440    0.0000 C   0  0  0  0  0  0  0  0  0  0  0  0
   -2.0350    0.2760    0.0000 C   0  0  1  0  0  0  0  0  0  0  0  0
   -3.1510   -0.7260    0.0000 C   0  0  0  0  0  0  0  0  0  0  0  0
   -0.6430    0.8360    0.0000 O   0  0  0  0  0  0  0  0  0  0  0  0
    0.5380   -0.0890    0.0000 C   0  0  0  0  0  0  0  0  0  0  0  0
    0.1470   -1.5370    0.0000 O   0  0  0  0  0  0  0  0  0  0  0  0
    1.9290    0.4710    0.0000 C   0  0  0  0  0  0  0  0  0  0  0  0
    1.3690    1.8620    0.0000 O   0  0  0  0  0  0  0  0  0  0  0  0
    3.3210    1.0310    0.0000 C   0  0  0  0  0  0  0  0  0  0  0  0
    4.5010    0.1050    0.0000 C   0  0  0  0  0  0  0  0  0  0  0  0
    5.8930    0.6650    0.0000 C   0  0  0  0  0  0  0  0  0  0  0  0
    6.1040    2.1500    0.0000 C   0  0  0  0  0  0  0  0  0  0  0  0
    4.9230    3.0750    0.0000 C   0  0  0  0  0  0  0  0  0  0  0  0
    3.5320    2.5160    0.0000 C   0  0  0  0  0  0  0  0  0  0  0  0
    2.4890   -0.9210    0.0000 C   0  0  0  0  0  0  0  0  0  0  0  0
    1.5640   -2.1020    0.0000 C   0  0  0  0  0  0  0  0  0  0  0  0
    2.1240   -3.4930    0.0000 C   0  0  0  0  0  0  0  0  0  0  0  0
    3.6090   -3.7040    0.0000 C   0  0  0  0  0  0  0  0  0  0  0  0
    4.5340   -2.5240    0.0000 C   0  0  0  0  0  0  0  0  0  0  0  0
    3.9740   -1.1320    0.0000 C   0  0  0  0  0  0  0  0  0  0  0  0
   -4.9990   -3.2300    0.0000 H   0  0  0  0  0  0  0  0  0  0  0  0
   -5.5850   -1.7300    0.0000 H   0  0  0  0  0  0  0  0  0  0  0  0
   -3.3390   -2.1360    0.0000 H   0  0  0  0  0  0  0  0  0  0  0  0
   -7.5750   -0.3600    0.0000 H   0  0  0  0  0  0  0  0  0  0  0  0
   -6.1470   -1.1040    0.0000 H   0  0  0  0  0  0  0  0  0  0  0  0
   -6.3080    1.1720    0.0000 H   0  0  0  0  0  0  0  0  0  0  0  0
   -6.3360    0.8220    0.0000 H   0  0  0  0  0  0  0  0  0  0  0  0
   -5.6790    2.4810    0.0000 H   0  0  0  0  0  0  0  0  0  0  0  0
   -4.9510    3.1350    0.0000 H   0  0  0  0  0  0  0  0  0  0  0  0
   -3.0640    3.5330    0.0000 H   0  0  0  0  0  0  0  0  0  0  0  0
   -2.1330    3.2290    0.0000 H   0  0  0  0  0  0  0  0  0  0  0  0
   -0.8450    1.7940    0.0000 H   0  0  0  0  0  0  0  0  0  0  0  0
   -1.2420   -0.9970    0.0000 H   0  0  0  0  0  0  0  0  0  0  0  0
   -1.9700   -1.6510    0.0000 H   0  0  0  0  0  0  0  0  0  0  0  0
   -3.6910   -2.1250    0.0000 H   0  0  0  0  0  0  0  0  0  0  0  0
    2.1440    3.1470    0.0000 H   0  0  0  0  0  0  0  0  0  0  0  0
    4.6560   -1.3870    0.0000 H   0  0  0  0  0  0  0  0  0  0  0  0
    7.0740   -0.2600    0.0000 H   0  0  0  0  0  0  0  0  0  0  0  0
    7.4960    2.7100    0.0000 H   0  0  0  0  0  0  0  0  0  0  0  0
    5.1340    4.5610    0.0000 H   0  0  0  0  0  0  0  0  0  0  0  0
    2.4730    3.5780    0.0000 H   0  0  0  0  0  0  0  0  0  0  0  0
    0.0640   -2.0730    0.0000 H   0  0  0  0  0  0  0  0  0  0  0  0
    1.1980   -4.6740    0.0000 H   0  0  0  0  0  0  0  0  0  0  0  0
    4.1680   -5.0960    0.0000 H   0  0  0  0  0  0  0  0  0  0  0  0
    6.0190   -2.7350    0.0000 H   0  0  0  0  0  0  0  0  0  0  0  0
    5.1580   -0.2100    0.0000 H   0  0  0  0  0  0  0  0  0  0  0  0
  1  2  1  0  0  0  0
  1 26  1  0  0  0  0
  1 27  1  0  0  0  0
  1 28  1  0  0  0  0
  2  3  1  0  0  0  0
  2  4  1  0  0  0  0
  2  8  1  0  0  0  0
  3 29  1  0  0  0  0
  3 30  1  0  0  0  0
  3 31  1  0  0  0  0
  4  5  1  0  0  0  0
  4 32  1  0  0  0  0
  4 33  1  0  0  0  0
  5  6  1  0  0  0  0
  5 34  1  0  0  0  0
  5 35  1  0  0  0  0
  6  7  1  0  0  0  0
  6 36  1  0  0  0  0
  6 37  1  0  0  0  0
  7  8  1  0  0  0  0
  7  9  1  0  0  0  0
  7 38  1  1  0  0  0
  8 39  1  0  0  0  0
  8 40  1  0  0  0  0
  9 10  1  0  0  0  0
 10 11  2  0  0  0  0
 10 12  1  0  0  0  0
 12 13  1  0  0  0  0
 12 14  1  0  0  0  0
 12 20  1  0  0  0  0
 13 41  1  0  0  0  0
 14 15  2  0  0  0  0
 14 19  1  0  0  0  0
 15 16  1  0  0  0  0
 15 42  1  0  0  0  0
 16 17  2  0  0  0  0
 16 43  1  0  0  0  0
 17 18  1  0  0  0  0
 17 44  1  0  0  0  0
 18 19  2  0  0  0  0
 18 45  1  0  0  0  0
 19 46  1  0  0  0  0
 20 21  2  0  0  0  0
 20 25  1  0  0  0  0
 21 22  1  0  0  0  0
 21 47  1  0  0  0  0
 22 23  2  0  0  0  0
 22 48  1  0  0  0  0
 23 24  1  0  0  0  0
 23 49  1  0  0  0  0
 24 25  2  0  0  0  0
 24 50  1  0  0  0  0
 25 51  1  0  0  0  0
M  CHG  1   2   1
M  END
$$$$
