2D_structures\o52_MMV1633675_2D.pdb
 OpenBabel02272422463D

 54 56  0  0  1  0  0  0  0  0999 V2000
    6.0950   -0.9850    0.0000 C   0  0  0  0  0  0  0  0  0  0  0  0
    4.6280   -0.6720    0.0000 C   0  0  0  0  0  0  0  0  0  0  0  0
    4.3140   -2.1390    0.0000 C   0  0  0  0  0  0  0  0  0  0  0  0
    3.1610   -0.3590    0.0000 C   0  0  0  0  0  0  0  0  0  0  0  0
    2.1560   -1.4730    0.0000 C   0  0  0  0  0  0  0  0  0  0  0  0
    0.6890   -1.1600    0.0000 C   0  0  0  0  0  0  0  0  0  0  0  0
   -0.3160   -2.2730    0.0000 C   0  0  0  0  0  0  0  0  0  0  0  0
   -1.7830   -1.9600    0.0000 C   0  0  0  0  0  0  0  0  0  0  0  0
   -2.2450   -0.5330    0.0000 C   0  0  1  0  0  0  0  0  0  0  0  0
   -3.7120   -0.2200    0.0000 C   0  0  1  0  0  0  0  0  0  0  0  0
   -3.7650   -1.7190    0.0000 C   0  0  0  0  0  0  0  0  0  0  0  0
   -4.1740    1.2070    0.0000 C   0  0  0  0  0  0  0  0  0  0  0  0
   -3.1690    2.3210    0.0000 C   0  0  0  0  0  0  0  0  0  0  0  0
   -1.7020    2.0080    0.0000 C   0  0  0  0  0  0  0  0  0  0  0  0
   -1.2400    0.5810    0.0000 C   0  0  1  0  0  0  0  0  0  0  0  0
   -0.2350    1.6940    0.0000 C   0  0  0  0  0  0  0  0  0  0  0  0
    0.2270    0.2670    0.0000 C   0  0  0  0  0  0  0  0  0  0  0  0
    1.2320    1.3810    0.0000 C   0  0  0  0  0  0  0  0  0  0  0  0
    2.6980    1.0680    0.0000 C   0  0  0  0  0  0  0  0  0  0  0  0
    3.7030    2.1820    0.0000 S   0  0  0  0  0  0  0  0  0  0  0  0
    4.7080    3.2960    0.0000 O   0  0  0  0  0  0  0  0  0  0  0  0
    4.6980    1.4840    0.0000 O   0  0  0  0  0  0  0  0  0  0  0  0
    2.5890    3.1860    0.0000 O   0  0  0  0  0  0  0  0  0  0  0  0
   -5.1970   -0.4270    0.0000 C   0  0  0  0  0  0  0  0  0  0  0  0
   -6.2570    0.6340    0.0000 O   0  0  0  0  0  0  0  0  0  0  0  0
   -5.7600   -1.8180    0.0000 O   0  0  0  0  0  0  0  0  0  0  0  0
    7.5620   -1.2990    0.0000 H   0  0  0  0  0  0  0  0  0  0  0  0
    6.4080    0.4820    0.0000 H   0  0  0  0  0  0  0  0  0  0  0  0
    6.0170   -1.8680    0.0000 H   0  0  0  0  0  0  0  0  0  0  0  0
    5.0240    0.4760    0.0000 H   0  0  0  0  0  0  0  0  0  0  0  0
    4.0010   -3.6060    0.0000 H   0  0  0  0  0  0  0  0  0  0  0  0
    5.1520   -2.4280    0.0000 H   0  0  0  0  0  0  0  0  0  0  0  0
    3.4290   -2.1690    0.0000 H   0  0  0  0  0  0  0  0  0  0  0  0
    2.4290   -2.3150    0.0000 H   0  0  0  0  0  0  0  0  0  0  0  0
   -0.8790   -3.6640    0.0000 H   0  0  0  0  0  0  0  0  0  0  0  0
    0.9560   -3.0690    0.0000 H   0  0  0  0  0  0  0  0  0  0  0  0
   -2.9640   -2.6140    0.0000 H   0  0  0  0  0  0  0  0  0  0  0  0
   -1.8360   -3.4590    0.0000 H   0  0  0  0  0  0  0  0  0  0  0  0
   -2.9430   -1.5280    0.0000 H   0  0  0  0  0  0  0  0  0  0  0  0
   -3.8140   -3.0680    0.0000 H   0  0  0  0  0  0  0  0  0  0  0  0
   -5.2330   -2.0300    0.0000 H   0  0  0  0  0  0  0  0  0  0  0  0
   -2.3240   -2.1340    0.0000 H   0  0  0  0  0  0  0  0  0  0  0  0
   -5.0960    2.3900    0.0000 H   0  0  0  0  0  0  0  0  0  0  0  0
   -5.5750    0.6710    0.0000 H   0  0  0  0  0  0  0  0  0  0  0  0
   -2.6060    3.7110    0.0000 H   0  0  0  0  0  0  0  0  0  0  0  0
   -4.4410    3.1170    0.0000 H   0  0  0  0  0  0  0  0  0  0  0  0
   -0.3110    2.5680    0.0000 H   0  0  0  0  0  0  0  0  0  0  0  0
   -1.8320    3.5020    0.0000 H   0  0  0  0  0  0  0  0  0  0  0  0
    0.6260    2.9220    0.0000 H   0  0  0  0  0  0  0  0  0  0  0  0
    1.2200    1.3300    0.0000 H   0  0  0  0  0  0  0  0  0  0  0  0
   -0.9150    3.0320    0.0000 H   0  0  0  0  0  0  0  0  0  0  0  0
    0.9470    2.8540    0.0000 H   0  0  0  0  0  0  0  0  0  0  0  0
    2.9030    4.6530    0.0000 H   0  0  0  0  0  0  0  0  0  0  0  0
   -7.2460   -2.0250    0.0000 H   0  0  0  0  0  0  0  0  0  0  0  0
  1  2  1  0  0  0  0
  1 27  1  0  0  0  0
  1 28  1  0  0  0  0
  1 29  1  0  0  0  0
  2  3  1  0  0  0  0
  2  4  1  0  0  0  0
  2 30  1  0  0  0  0
  3 31  1  0  0  0  0
  3 32  1  0  0  0  0
  3 33  1  0  0  0  0
  4  5  2  0  0  0  0
  4 19  1  0  0  0  0
  5  6  1  0  0  0  0
  5 34  1  0  0  0  0
  6  7  1  0  0  0  0
  6 17  2  0  0  0  0
  7  8  1  0  0  0  0
  7 35  1  0  0  0  0
  7 36  1  0  0  0  0
  8  9  1  0  0  0  0
  8 37  1  0  0  0  0
  8 38  1  0  0  0  0
  9 10  1  0  0  0  0
  9 15  1  0  0  0  0
  9 39  1  6  0  0  0
 10 11  1  0  0  0  0
 10 12  1  0  0  0  0
 10 24  1  6  0  0  0
 11 40  1  0  0  0  0
 11 41  1  0  0  0  0
 11 42  1  0  0  0  0
 12 13  1  0  0  0  0
 12 43  1  0  0  0  0
 12 44  1  0  0  0  0
 13 14  1  0  0  0  0
 13 45  1  0  0  0  0
 13 46  1  0  0  0  0
 14 15  1  0  0  0  0
 14 47  1  0  0  0  0
 14 48  1  0  0  0  0
 15 16  1  1  0  0  0
 15 17  1  0  0  0  0
 16 49  1  0  0  0  0
 16 50  1  0  0  0  0
 16 51  1  0  0  0  0
 17 18  1  0  0  0  0
 18 19  2  0  0  0  0
 18 52  1  0  0  0  0
 19 20  1  0  0  0  0
 20 21  2  0  0  0  0
 20 22  2  0  0  0  0
 20 23  1  0  0  0  0
 23 53  1  0  0  0  0
 24 25  2  0  0  0  0
 24 26  1  0  0  0  0
 26 54  1  0  0  0  0
M  END
$$$$
