2D_structures\o53_MMV303733_2D.pdb
 OpenBabel02272422463D

 55 57  0  0  1  0  0  0  0  0999 V2000
  -10.3620   -1.5720    0.0000 C   0  0  0  0  0  0  0  0  0  0  0  0
   -9.0810   -2.3530    0.0000 O   0  0  0  0  0  0  0  0  0  0  0  0
   -7.7640   -1.6350    0.0000 C   0  0  0  0  0  0  0  0  0  0  0  0
   -7.7280   -0.1360    0.0000 C   0  0  0  0  0  0  0  0  0  0  0  0
   -6.4110    0.5820    0.0000 C   0  0  0  0  0  0  0  0  0  0  0  0
   -5.1300   -0.1990    0.0000 C   0  0  0  0  0  0  0  0  0  0  0  0
   -3.8140    0.5190    0.0000 C   0  0  0  0  0  0  0  0  0  0  0  0
   -2.4970    1.2370    0.0000 N   0  0  0  0  0  0  0  0  0  0  0  0
   -1.2160    0.4550    0.0000 C   0  0  0  0  0  0  0  0  0  0  0  0
   -1.2530   -1.0440    0.0000 O   0  0  0  0  0  0  0  0  0  0  0  0
    0.1010    1.1730    0.0000 C   0  0  1  0  0  0  0  0  0  0  0  0
    0.8190   -0.1440    0.0000 N   0  0  0  0  0  0  0  0  0  0  0  0
    2.3180   -0.1800    0.0000 S   0  0  0  0  0  0  0  0  0  0  0  0
    2.4350    0.6080    0.0000 O   0  0  0  0  0  0  0  0  0  0  0  0
    2.2820   -1.6800    0.0000 O   0  0  0  0  0  0  0  0  0  0  0  0
    3.8180   -0.2170    0.0000 C   0  0  0  0  0  0  0  0  0  0  0  0
    4.5990    1.0630    0.0000 C   0  0  0  0  0  0  0  0  0  0  0  0
    6.0990    1.0270    0.0000 C   0  0  0  0  0  0  0  0  0  0  0  0
    6.8170   -0.2900    0.0000 C   0  0  0  0  0  0  0  0  0  0  0  0
    8.2760   -0.6380    0.0000 N   0  0  0  0  0  0  0  0  0  0  0  0
    8.3960   -2.1330    0.0000 C   0  0  0  0  0  0  0  0  0  0  0  0
    9.6770   -2.9150    0.0000 C   0  0  0  0  0  0  0  0  0  0  0  0
    7.0120   -2.7100    0.0000 S   0  0  0  0  0  0  0  0  0  0  0  0
    6.0350   -1.5710    0.0000 C   0  0  0  0  0  0  0  0  0  0  0  0
    4.5360   -1.5340    0.0000 C   0  0  0  0  0  0  0  0  0  0  0  0
    1.4180    1.8910    0.0000 C   0  0  0  0  0  0  0  0  0  0  0  0
    2.7350    2.6090    0.0000 C   0  0  0  0  0  0  0  0  0  0  0  0
    0.7000    3.2080    0.0000 C   0  0  0  0  0  0  0  0  0  0  0  0
   -5.1670   -1.6990    0.0000 C   0  0  0  0  0  0  0  0  0  0  0  0
   -6.4840   -2.4170    0.0000 C   0  0  0  0  0  0  0  0  0  0  0  0
  -11.6420   -0.7900    0.0000 H   0  0  0  0  0  0  0  0  0  0  0  0
  -11.1430   -2.8520    0.0000 H   0  0  0  0  0  0  0  0  0  0  0  0
   -9.5800   -0.2910    0.0000 H   0  0  0  0  0  0  0  0  0  0  0  0
   -9.0080    0.6460    0.0000 H   0  0  0  0  0  0  0  0  0  0  0  0
   -6.3740    2.0820    0.0000 H   0  0  0  0  0  0  0  0  0  0  0  0
   -3.0950   -0.7980    0.0000 H   0  0  0  0  0  0  0  0  0  0  0  0
   -4.5320    1.8360    0.0000 H   0  0  0  0  0  0  0  0  0  0  0  0
   -2.4600    2.7360    0.0000 H   0  0  0  0  0  0  0  0  0  0  0  0
   -0.7720    2.3930    0.0000 H   0  0  0  0  0  0  0  0  0  0  0  0
    0.0370   -1.4240    0.0000 H   0  0  0  0  0  0  0  0  0  0  0  0
    3.8810    2.3800    0.0000 H   0  0  0  0  0  0  0  0  0  0  0  0
    6.8810    2.3070    0.0000 H   0  0  0  0  0  0  0  0  0  0  0  0
   10.9570   -3.6960    0.0000 H   0  0  0  0  0  0  0  0  0  0  0  0
    8.8950   -4.1950    0.0000 H   0  0  0  0  0  0  0  0  0  0  0  0
   10.4580   -1.6340    0.0000 H   0  0  0  0  0  0  0  0  0  0  0  0
    3.7540   -2.8140    0.0000 H   0  0  0  0  0  0  0  0  0  0  0  0
    2.0920    1.3170    0.0000 H   0  0  0  0  0  0  0  0  0  0  0  0
    4.0520    3.3270    0.0000 H   0  0  0  0  0  0  0  0  0  0  0  0
    3.4530    1.2920    0.0000 H   0  0  0  0  0  0  0  0  0  0  0  0
    2.1830    4.0040    0.0000 H   0  0  0  0  0  0  0  0  0  0  0  0
   -0.0180    4.5250    0.0000 H   0  0  0  0  0  0  0  0  0  0  0  0
    1.9190    4.0820    0.0000 H   0  0  0  0  0  0  0  0  0  0  0  0
   -0.6950    2.6560    0.0000 H   0  0  0  0  0  0  0  0  0  0  0  0
   -3.8870   -2.4800    0.0000 H   0  0  0  0  0  0  0  0  0  0  0  0
   -6.5210   -3.9160    0.0000 H   0  0  0  0  0  0  0  0  0  0  0  0
  1  2  1  0  0  0  0
  1 31  1  0  0  0  0
  1 32  1  0  0  0  0
  1 33  1  0  0  0  0
  2  3  1  0  0  0  0
  3  4  2  0  0  0  0
  3 30  1  0  0  0  0
  4  5  1  0  0  0  0
  4 34  1  0  0  0  0
  5  6  2  0  0  0  0
  5 35  1  0  0  0  0
  6  7  1  0  0  0  0
  6 29  1  0  0  0  0
  7  8  1  0  0  0  0
  7 36  1  0  0  0  0
  7 37  1  0  0  0  0
  8  9  1  0  0  0  0
  8 38  1  0  0  0  0
  9 10  2  0  0  0  0
  9 11  1  0  0  0  0
 11 12  1  0  0  0  0
 11 26  1  0  0  0  0
 11 39  1  1  0  0  0
 12 13  1  0  0  0  0
 12 40  1  0  0  0  0
 13 14  2  0  0  0  0
 13 15  2  0  0  0  0
 13 16  1  0  0  0  0
 16 17  2  0  0  0  0
 16 25  1  0  0  0  0
 17 18  1  0  0  0  0
 17 41  1  0  0  0  0
 18 19  2  0  0  0  0
 18 42  1  0  0  0  0
 19 20  1  0  0  0  0
 19 24  1  0  0  0  0
 20 21  2  0  0  0  0
 21 22  1  0  0  0  0
 21 23  1  0  0  0  0
 22 43  1  0  0  0  0
 22 44  1  0  0  0  0
 22 45  1  0  0  0  0
 23 24  1  0  0  0  0
 24 25  2  0  0  0  0
 25 46  1  0  0  0  0
 26 27  1  0  0  0  0
 26 28  1  0  0  0  0
 26 47  1  0  0  0  0
 27 48  1  0  0  0  0
 27 49  1  0  0  0  0
 27 50  1  0  0  0  0
 28 51  1  0  0  0  0
 28 52  1  0  0  0  0
 28 53  1  0  0  0  0
 29 30  2  0  0  0  0
 29 54  1  0  0  0  0
 30 55  1  0  0  0  0
M  END
$$$$
