2D_structures\o54_MMV003249_2D.pdb
 OpenBabel02272422463D

 14 14  0  0  0  0  0  0  0  0999 V2000
   -2.8150    0.0970    0.0000 N   0  0  0  0  0  0  0  0  0  0  0  0
   -1.6780   -0.8820    0.0000 C   0  0  0  0  0  0  0  0  0  0  0  0
   -1.9570   -2.3550    0.0000 O   0  0  0  0  0  0  0  0  0  0  0  0
   -0.2620   -0.3870    0.0000 C   0  0  0  0  0  0  0  0  0  0  0  0
    0.0170    1.0870    0.0000 C   0  0  0  0  0  0  0  0  0  0  0  0
    1.4330    1.5820    0.0000 N   0  0  0  0  0  0  0  0  0  0  0  0
    2.5700    0.6040    0.0000 C   0  0  0  0  0  0  0  0  0  0  0  0
    2.2910   -0.8700    0.0000 C   0  0  0  0  0  0  0  0  0  0  0  0
    0.8750   -1.3650    0.0000 N   0  0  0  0  0  0  0  0  0  0  0  0
   -4.2310   -0.3980    0.0000 H   0  0  0  0  0  0  0  0  0  0  0  0
   -2.5360    1.5710    0.0000 H   0  0  0  0  0  0  0  0  0  0  0  0
   -1.1200    2.0660    0.0000 H   0  0  0  0  0  0  0  0  0  0  0  0
    3.9860    1.0990    0.0000 H   0  0  0  0  0  0  0  0  0  0  0  0
    3.4270   -1.8490    0.0000 H   0  0  0  0  0  0  0  0  0  0  0  0
  1  2  1  0  0  0  0
  1 10  1  0  0  0  0
  1 11  1  0  0  0  0
  2  3  2  0  0  0  0
  2  4  1  0  0  0  0
  4  5  2  0  0  0  0
  4  9  1  0  0  0  0
  5  6  1  0  0  0  0
  5 12  1  0  0  0  0
  6  7  2  0  0  0  0
  7  8  1  0  0  0  0
  7 13  1  0  0  0  0
  8  9  2  0  0  0  0
  8 14  1  0  0  0  0
M  END
$$$$
