2D_structures\o55_MMV001438_2D.pdb
 OpenBabel02272422463D

 39 41  0  0  0  0  0  0  0  0999 V2000
    2.3400    2.3090    0.0000 C   0  0  0  0  0  0  0  0  0  0  0  0
    2.2910    0.8100    0.0000 C   0  0  0  0  0  0  0  0  0  0  0  0
    3.5650    0.0180    0.0000 C   0  0  0  0  0  0  0  0  0  0  0  0
    4.8880    0.7260    0.0000 O   0  0  0  0  0  0  0  0  0  0  0  0
    6.1620   -0.0660    0.0000 C   0  0  0  0  0  0  0  0  0  0  0  0
    7.4360   -0.8580    0.0000 C   0  0  0  0  0  0  0  0  0  0  0  0
    8.7100   -1.6500    0.0000 F   0  0  0  0  0  0  0  0  0  0  0  0
    6.6440   -2.1320    0.0000 F   0  0  0  0  0  0  0  0  0  0  0  0
    8.2280    0.4160    0.0000 F   0  0  0  0  0  0  0  0  0  0  0  0
    3.5170   -1.4810    0.0000 C   0  0  0  0  0  0  0  0  0  0  0  0
    2.1940   -2.1880    0.0000 C   0  0  0  0  0  0  0  0  0  0  0  0
    0.9200   -1.3970    0.0000 N   0  0  0  0  0  0  0  0  0  0  0  0
    0.9690    0.1020    0.0000 C   0  0  0  0  0  0  0  0  0  0  0  0
   -0.3050    0.8940    0.0000 C   0  0  0  0  0  0  0  0  0  0  0  0
   -1.5790    1.6860    0.0000 S   0  0  1  0  0  0  0  0  0  0  0  0
   -1.5310    3.1850    0.0000 O   0  0  0  0  0  0  0  0  0  0  0  0
   -2.9020    0.9790    0.0000 C   0  0  0  0  0  0  0  0  0  0  0  0
   -3.1070   -0.5070    0.0000 N   0  0  0  0  0  0  0  0  0  0  0  0
   -4.5840   -0.7710    0.0000 C   0  0  0  0  0  0  0  0  0  0  0  0
   -5.3750   -2.0450    0.0000 C   0  0  0  0  0  0  0  0  0  0  0  0
   -6.8750   -1.9970    0.0000 C   0  0  0  0  0  0  0  0  0  0  0  0
   -7.5820   -0.6740    0.0000 C   0  0  0  0  0  0  0  0  0  0  0  0
   -6.7900    0.6000    0.0000 C   0  0  0  0  0  0  0  0  0  0  0  0
   -5.2910    0.5510    0.0000 C   0  0  0  0  0  0  0  0  0  0  0  0
   -4.2520    1.6330    0.0000 N   0  0  0  0  0  0  0  0  0  0  0  0
    2.3890    3.8080    0.0000 H   0  0  0  0  0  0  0  0  0  0  0  0
    1.1400    2.4960    0.0000 H   0  0  0  0  0  0  0  0  0  0  0  0
    3.8390    2.2600    0.0000 H   0  0  0  0  0  0  0  0  0  0  0  0
    5.3700   -1.3400    0.0000 H   0  0  0  0  0  0  0  0  0  0  0  0
    6.9540    1.2080    0.0000 H   0  0  0  0  0  0  0  0  0  0  0  0
    4.7910   -2.2730    0.0000 H   0  0  0  0  0  0  0  0  0  0  0  0
    2.1450   -3.6880    0.0000 H   0  0  0  0  0  0  0  0  0  0  0  0
   -1.0970   -0.3800    0.0000 H   0  0  0  0  0  0  0  0  0  0  0  0
    0.2060    1.9970    0.0000 H   0  0  0  0  0  0  0  0  0  0  0  0
   -4.6680   -3.3680    0.0000 H   0  0  0  0  0  0  0  0  0  0  0  0
   -7.6660   -3.2710    0.0000 H   0  0  0  0  0  0  0  0  0  0  0  0
   -9.0810   -0.6250    0.0000 H   0  0  0  0  0  0  0  0  0  0  0  0
   -7.4980    1.9230    0.0000 H   0  0  0  0  0  0  0  0  0  0  0  0
   -4.5160    3.1090    0.0000 H   0  0  0  0  0  0  0  0  0  0  0  0
  1  2  1  0  0  0  0
  1 26  1  0  0  0  0
  1 27  1  0  0  0  0
  1 28  1  0  0  0  0
  2  3  2  0  0  0  0
  2 13  1  0  0  0  0
  3  4  1  0  0  0  0
  3 10  1  0  0  0  0
  4  5  1  0  0  0  0
  5  6  1  0  0  0  0
  5 29  1  0  0  0  0
  5 30  1  0  0  0  0
  6  7  1  0  0  0  0
  6  8  1  0  0  0  0
  6  9  1  0  0  0  0
 10 11  2  0  0  0  0
 10 31  1  0  0  0  0
 11 12  1  0  0  0  0
 11 32  1  0  0  0  0
 12 13  2  0  0  0  0
 13 14  1  0  0  0  0
 14 15  1  0  0  0  0
 14 33  1  0  0  0  0
 14 34  1  0  0  0  0
 15 16  2  6  0  0  0
 15 17  1  0  0  0  0
 17 18  2  0  0  0  0
 17 25  1  0  0  0  0
 18 19  1  0  0  0  0
 19 20  2  0  0  0  0
 19 24  1  0  0  0  0
 20 21  1  0  0  0  0
 20 35  1  0  0  0  0
 21 22  2  0  0  0  0
 21 36  1  0  0  0  0
 22 23  1  0  0  0  0
 22 37  1  0  0  0  0
 23 24  2  0  0  0  0
 23 38  1  0  0  0  0
 24 25  1  0  0  0  0
 25 39  1  0  0  0  0
M  END
$$$$
