2D_structures\o56_MMV1582496_2D.pdb
 OpenBabel02272422463D

 29 30  0  0  0  0  0  0  0  0999 V2000
    2.6010    3.2020    0.0000 F   0  0  0  0  0  0  0  0  0  0  0  0
    2.7530    1.7090    0.0000 C   0  0  0  0  0  0  0  0  0  0  0  0
    1.5360    0.8320    0.0000 C   0  0  0  0  0  0  0  0  0  0  0  0
    0.1680    1.4470    0.0000 Cl  0  0  0  0  0  0  0  0  0  0  0  0
    1.6880   -0.6600    0.0000 C   0  0  0  0  0  0  0  0  0  0  0  0
    0.4710   -1.5380    0.0000 N   0  0  0  0  0  0  0  0  0  0  0  0
   -0.8970   -0.9230    0.0000 C   0  0  0  0  0  0  0  0  0  0  0  0
   -2.2650   -0.3080    0.0000 C   0  0  0  0  0  0  0  0  0  0  0  0
   -2.4170    1.1840    0.0000 C   0  0  0  0  0  0  0  0  0  0  0  0
   -3.7850    1.7990    0.0000 C   0  0  0  0  0  0  0  0  0  0  0  0
   -5.0010    0.9220    0.0000 C   0  0  0  0  0  0  0  0  0  0  0  0
   -4.8500   -0.5710    0.0000 C   0  0  0  0  0  0  0  0  0  0  0  0
   -3.4820   -1.1850    0.0000 C   0  0  0  0  0  0  0  0  0  0  0  0
    3.0560   -1.2750    0.0000 C   0  0  0  0  0  0  0  0  0  0  0  0
    3.2080   -2.7680    0.0000 C   0  0  0  0  0  0  0  0  0  0  0  0
    3.3590   -4.2600    0.0000 N   0  0  0  0  0  0  0  0  0  0  0  0
    4.2730   -0.3980    0.0000 C   0  0  0  0  0  0  0  0  0  0  0  0
    5.6410   -1.0130    0.0000 F   0  0  0  0  0  0  0  0  0  0  0  0
    4.1210    1.0940    0.0000 C   0  0  0  0  0  0  0  0  0  0  0  0
    5.3380    1.9720    0.0000 C   0  0  0  0  0  0  0  0  0  0  0  0
    6.5540    2.8490    0.0000 N   0  0  0  0  0  0  0  0  0  0  0  0
    0.6230   -3.0300    0.0000 H   0  0  0  0  0  0  0  0  0  0  0  0
   -0.2820    0.4450    0.0000 H   0  0  0  0  0  0  0  0  0  0  0  0
   -1.5120   -2.2910    0.0000 H   0  0  0  0  0  0  0  0  0  0  0  0
   -1.2000    2.0620    0.0000 H   0  0  0  0  0  0  0  0  0  0  0  0
   -3.9360    3.2920    0.0000 H   0  0  0  0  0  0  0  0  0  0  0  0
   -6.3690    1.5370    0.0000 H   0  0  0  0  0  0  0  0  0  0  0  0
   -6.0660   -1.4480    0.0000 H   0  0  0  0  0  0  0  0  0  0  0  0
   -3.3300   -2.6780    0.0000 H   0  0  0  0  0  0  0  0  0  0  0  0
  1  2  1  0  0  0  0
  2  3  2  0  0  0  0
  2 19  1  0  0  0  0
  3  4  1  0  0  0  0
  3  5  1  0  0  0  0
  5  6  1  0  0  0  0
  5 14  2  0  0  0  0
  6  7  1  0  0  0  0
  6 22  1  0  0  0  0
  7  8  1  0  0  0  0
  7 23  1  0  0  0  0
  7 24  1  0  0  0  0
  8  9  2  0  0  0  0
  8 13  1  0  0  0  0
  9 10  1  0  0  0  0
  9 25  1  0  0  0  0
 10 11  2  0  0  0  0
 10 26  1  0  0  0  0
 11 12  1  0  0  0  0
 11 27  1  0  0  0  0
 12 13  2  0  0  0  0
 12 28  1  0  0  0  0
 13 29  1  0  0  0  0
 14 15  1  0  0  0  0
 14 17  1  0  0  0  0
 15 16  3  0  0  0  0
 17 18  1  0  0  0  0
 17 19  2  0  0  0  0
 19 20  1  0  0  0  0
 20 21  3  0  0  0  0
M  END
$$$$
