2D_structures\o57_MMV1582490_2D.pdb
 OpenBabel02272422463D

 48 50  0  0  1  0  0  0  0  0999 V2000
    2.5650   -4.0570    0.0000 C   0  0  0  0  0  0  0  0  0  0  0  0
    1.9060   -2.7090    0.0000 C   0  0  0  0  0  0  0  0  0  0  0  0
    1.2480   -1.3610    0.0000 C   0  0  0  0  0  0  0  0  0  0  0  0
   -0.2490   -1.2580    0.0000 C   0  0  0  0  0  0  0  0  0  0  0  0
   -0.9070    0.0900    0.0000 C   0  0  0  0  0  0  0  0  0  0  0  0
   -2.4040    0.1930    0.0000 C   0  0  0  0  0  0  0  0  0  0  0  0
   -3.9000    0.2970    0.0000 C   0  0  0  0  0  0  0  0  0  0  0  0
   -4.5590    1.6440    0.0000 C   0  0  0  0  0  0  0  0  0  0  0  0
   -6.0550    1.7480    0.0000 N   0  0  0  0  0  0  0  0  0  0  0  0
   -6.8930    0.5030    0.0000 C   0  0  0  0  0  0  0  0  0  0  0  0
   -8.3900    0.6070    0.0000 N   0  0  0  0  0  0  0  0  0  0  0  0
   -6.2350   -0.8440    0.0000 N   0  0  0  0  0  0  0  0  0  0  0  0
   -4.7380   -0.9480    0.0000 C   0  0  0  0  0  0  0  0  0  0  0  0
   -4.0790   -2.2950    0.0000 N   0  0  0  0  0  0  0  0  0  0  0  0
   -0.0700    1.3340    0.0000 C   0  0  0  0  0  0  0  0  0  0  0  0
    1.4270    1.2310    0.0000 C   0  0  0  0  0  0  0  0  0  0  0  0
    2.2650    2.4750    0.0000 C   0  0  1  0  0  0  0  0  0  0  0  0
    2.6260    3.9310    0.0000 C   0  0  0  0  0  0  0  0  0  0  0  0
    3.7610    2.3720    0.0000 C   0  0  0  0  0  0  0  0  0  0  0  0
    4.4200    1.0240    0.0000 C   0  0  0  0  0  0  0  0  0  0  0  0
    3.5820   -0.2200    0.0000 N   0  0  0  0  0  0  0  0  0  0  0  0
    4.2410   -1.5680    0.0000 C   0  0  0  0  0  0  0  0  0  0  0  0
    2.0850   -0.1170    0.0000 C   0  0  0  0  0  0  0  0  0  0  0  0
    3.2240   -5.4040    0.0000 H   0  0  0  0  0  0  0  0  0  0  0  0
    1.2170   -4.7150    0.0000 H   0  0  0  0  0  0  0  0  0  0  0  0
    3.9130   -3.3980    0.0000 H   0  0  0  0  0  0  0  0  0  0  0  0
    0.5590   -3.3680    0.0000 H   0  0  0  0  0  0  0  0  0  0  0  0
    3.3240   -2.2190    0.0000 H   0  0  0  0  0  0  0  0  0  0  0  0
   -1.0870   -2.5020    0.0000 H   0  0  0  0  0  0  0  0  0  0  0  0
   -2.3000    1.6900    0.0000 H   0  0  0  0  0  0  0  0  0  0  0  0
   -2.5070   -1.3030    0.0000 H   0  0  0  0  0  0  0  0  0  0  0  0
   -3.7210    2.8890    0.0000 H   0  0  0  0  0  0  0  0  0  0  0  0
   -9.0480    1.9540    0.0000 H   0  0  0  0  0  0  0  0  0  0  0  0
   -9.2270   -0.6370    0.0000 H   0  0  0  0  0  0  0  0  0  0  0  0
   -4.9170   -3.5400    0.0000 H   0  0  0  0  0  0  0  0  0  0  0  0
   -2.5830   -2.3990    0.0000 H   0  0  0  0  0  0  0  0  0  0  0  0
   -0.7280    2.6820    0.0000 H   0  0  0  0  0  0  0  0  0  0  0  0
    0.8940    3.0840    0.0000 H   0  0  0  0  0  0  0  0  0  0  0  0
    2.9880    5.3860    0.0000 H   0  0  0  0  0  0  0  0  0  0  0  0
    1.1700    4.2920    0.0000 H   0  0  0  0  0  0  0  0  0  0  0  0
    3.4170    3.8340    0.0000 H   0  0  0  0  0  0  0  0  0  0  0  0
    5.2020    2.7860    0.0000 H   0  0  0  0  0  0  0  0  0  0  0  0
    3.7740    3.1690    0.0000 H   0  0  0  0  0  0  0  0  0  0  0  0
    5.6180    0.1220    0.0000 H   0  0  0  0  0  0  0  0  0  0  0  0
    5.6320    1.9070    0.0000 H   0  0  0  0  0  0  0  0  0  0  0  0
    4.8990   -2.9160    0.0000 H   0  0  0  0  0  0  0  0  0  0  0  0
    5.6580   -1.0790    0.0000 H   0  0  0  0  0  0  0  0  0  0  0  0
    2.9830   -2.3860    0.0000 H   0  0  0  0  0  0  0  0  0  0  0  0
  1  2  1  0  0  0  0
  1 24  1  0  0  0  0
  1 25  1  0  0  0  0
  1 26  1  0  0  0  0
  2  3  1  0  0  0  0
  2 27  1  0  0  0  0
  2 28  1  0  0  0  0
  3  4  2  0  0  0  0
  3 23  1  0  0  0  0
  4  5  1  0  0  0  0
  4 29  1  0  0  0  0
  5  6  1  0  0  0  0
  5 15  2  0  0  0  0
  6  7  1  0  0  0  0
  6 30  1  0  0  0  0
  6 31  1  0  0  0  0
  7  8  2  0  0  0  0
  7 13  1  0  0  0  0
  8  9  1  0  0  0  0
  8 32  1  0  0  0  0
  9 10  2  0  0  0  0
 10 11  1  0  0  0  0
 10 12  1  0  0  0  0
 11 33  1  0  0  0  0
 11 34  1  0  0  0  0
 12 13  2  0  0  0  0
 13 14  1  0  0  0  0
 14 35  1  0  0  0  0
 14 36  1  0  0  0  0
 15 16  1  0  0  0  0
 15 37  1  0  0  0  0
 16 17  1  0  0  0  0
 16 23  2  0  0  0  0
 17 18  1  0  0  0  0
 17 19  1  0  0  0  0
 17 38  1  6  0  0  0
 18 39  1  0  0  0  0
 18 40  1  0  0  0  0
 18 41  1  0  0  0  0
 19 20  1  0  0  0  0
 19 42  1  0  0  0  0
 19 43  1  0  0  0  0
 20 21  1  0  0  0  0
 20 44  1  0  0  0  0
 20 45  1  0  0  0  0
 21 22  1  0  0  0  0
 21 23  1  0  0  0  0
 22 46  1  0  0  0  0
 22 47  1  0  0  0  0
 22 48  1  0  0  0  0
M  END
$$$$
