2D_structures\o58_MMV1582489_2D.pdb
 OpenBabel02272422463D

 29 30  0  0  0  0  0  0  0  0999 V2000
   -3.5240   -1.9590    0.0000 C   0  0  0  0  0  0  0  0  0  0  0  0
   -3.1670   -0.5020    0.0000 C   0  0  0  0  0  0  0  0  0  0  0  0
   -4.2500    0.5360    0.0000 C   0  0  0  0  0  0  0  0  0  0  0  0
   -3.8930    1.9930    0.0000 N   0  0  0  0  0  0  0  0  0  0  0  0
   -2.4530    2.4120    0.0000 C   0  0  0  0  0  0  0  0  0  0  0  0
   -2.0960    3.8690    0.0000 O   0  0  0  0  0  0  0  0  0  0  0  0
   -1.3700    1.3740    0.0000 N   0  0  0  0  0  0  0  0  0  0  0  0
   -1.7270   -0.0830    0.0000 C   0  0  0  0  0  0  0  0  0  0  0  0
   -0.6440   -1.1200    0.0000 N   0  0  0  0  0  0  0  0  0  0  0  0
    0.7970   -0.7010    0.0000 C   0  0  0  0  0  0  0  0  0  0  0  0
    2.2370   -0.2820    0.0000 C   0  0  0  0  0  0  0  0  0  0  0  0
    3.3200   -1.3200    0.0000 C   0  0  0  0  0  0  0  0  0  0  0  0
    4.7600   -0.9010    0.0000 C   0  0  0  0  0  0  0  0  0  0  0  0
    5.1170    0.5560    0.0000 C   0  0  0  0  0  0  0  0  0  0  0  0
    4.0340    1.5940    0.0000 C   0  0  0  0  0  0  0  0  0  0  0  0
    2.5940    1.1750    0.0000 C   0  0  0  0  0  0  0  0  0  0  0  0
   -3.8810   -3.4160    0.0000 H   0  0  0  0  0  0  0  0  0  0  0  0
   -4.9810   -1.6020    0.0000 H   0  0  0  0  0  0  0  0  0  0  0  0
   -2.0670   -2.3160    0.0000 H   0  0  0  0  0  0  0  0  0  0  0  0
   -5.6900    0.1170    0.0000 H   0  0  0  0  0  0  0  0  0  0  0  0
   -4.9760    3.0300    0.0000 H   0  0  0  0  0  0  0  0  0  0  0  0
   -1.0010   -2.5770    0.0000 H   0  0  0  0  0  0  0  0  0  0  0  0
    0.3770    0.7390    0.0000 H   0  0  0  0  0  0  0  0  0  0  0  0
    1.2160   -2.1410    0.0000 H   0  0  0  0  0  0  0  0  0  0  0  0
    2.9630   -2.7770    0.0000 H   0  0  0  0  0  0  0  0  0  0  0  0
    5.8430   -1.9380    0.0000 H   0  0  0  0  0  0  0  0  0  0  0  0
    6.5580    0.9760    0.0000 H   0  0  0  0  0  0  0  0  0  0  0  0
    4.3910    3.0510    0.0000 H   0  0  0  0  0  0  0  0  0  0  0  0
    1.5110    2.2130    0.0000 H   0  0  0  0  0  0  0  0  0  0  0  0
  1  2  1  0  0  0  0
  1 17  1  0  0  0  0
  1 18  1  0  0  0  0
  1 19  1  0  0  0  0
  2  3  2  0  0  0  0
  2  8  1  0  0  0  0
  3  4  1  0  0  0  0
  3 20  1  0  0  0  0
  4  5  1  0  0  0  0
  4 21  1  0  0  0  0
  5  6  2  0  0  0  0
  5  7  1  0  0  0  0
  7  8  2  0  0  0  0
  8  9  1  0  0  0  0
  9 10  1  0  0  0  0
  9 22  1  0  0  0  0
 10 11  1  0  0  0  0
 10 23  1  0  0  0  0
 10 24  1  0  0  0  0
 11 12  2  0  0  0  0
 11 16  1  0  0  0  0
 12 13  1  0  0  0  0
 12 25  1  0  0  0  0
 13 14  2  0  0  0  0
 13 26  1  0  0  0  0
 14 15  1  0  0  0  0
 14 27  1  0  0  0  0
 15 16  2  0  0  0  0
 15 28  1  0  0  0  0
 16 29  1  0  0  0  0
M  END
$$$$
