2D_structures\o59_MMV1582488_2D.pdb
 OpenBabel02272422463D

 61 65  0  0  1  0  0  0  0  0999 V2000
   -8.0620    0.0010    0.0000 N   0  0  0  0  0  0  0  0  0  0  0  0
   -6.5880    0.2790    0.0000 C   0  0  0  0  0  0  0  0  0  0  0  0
   -6.0920    1.6940    0.0000 N   0  0  0  0  0  4  0  0  0  0  0  0
   -4.6180    1.9720    0.0000 C   0  0  0  0  0  0  0  0  0  0  0  0
   -3.6400    0.8340    0.0000 N   0  0  0  0  0  0  0  0  0  0  0  0
   -4.1370   -0.5810    0.0000 C   0  0  0  0  0  0  0  0  0  0  0  0
   -5.6110   -0.8590    0.0000 C   0  0  0  0  0  0  0  0  0  0  0  0
   -5.8020   -2.3470    0.0000 N   0  0  0  0  0  0  0  0  0  0  0  0
   -4.4460   -2.9880    0.0000 C   0  0  0  0  0  0  0  0  0  0  0  0
   -3.4170   -1.8970    0.0000 N   0  0  0  0  0  0  0  0  0  0  0  0
   -1.9290   -2.0880    0.0000 C   0  0  1  0  0  0  0  0  0  0  0  0
   -0.4340   -1.9660    0.0000 O   0  0  0  0  0  0  0  0  0  0  0  0
    0.1440   -3.3500    0.0000 C   0  0  1  0  0  0  0  0  0  0  0  0
    1.4600   -2.6300    0.0000 C   0  0  0  0  0  0  0  0  0  0  0  0
    2.7760   -1.9100    0.0000 O   0  0  0  0  0  0  0  0  0  0  0  0
    2.8110   -0.4110    0.0000 S   0  0  0  0  0  0  0  0  0  0  0  0
    1.3110   -0.3760    0.0000 O   0  0  0  0  0  0  0  0  0  0  0  0
    2.8460    1.0890    0.0000 O   0  0  0  0  0  0  0  0  0  0  0  0
    4.3110   -0.4450    0.0000 N   0  0  0  0  0  0  0  0  0  0  0  0
    5.0900    0.8360    0.0000 C   0  0  0  0  0  0  0  0  0  0  0  0
    4.3710    2.1520    0.0000 O   0  0  0  0  0  0  0  0  0  0  0  0
    6.5900    0.8010    0.0000 C   0  0  0  0  0  0  0  0  0  0  0  0
    7.3100   -0.5150    0.0000 C   0  0  0  0  0  0  0  0  0  0  0  0
    8.8090   -0.5490    0.0000 C   0  0  0  0  0  0  0  0  0  0  0  0
    9.5890    0.7320    0.0000 C   0  0  0  0  0  0  0  0  0  0  0  0
    8.8690    2.0480    0.0000 C   0  0  0  0  0  0  0  0  0  0  0  0
    7.3700    2.0830    0.0000 C   0  0  0  0  0  0  0  0  0  0  0  0
    6.6500    3.3990    0.0000 O   0  0  0  0  0  0  0  0  0  0  0  0
   -0.9930   -4.3280    0.0000 C   0  0  1  0  0  0  0  0  0  0  0  0
    0.0980   -5.3570    0.0000 O   0  0  0  0  0  0  0  0  0  0  0  0
   -2.2750   -3.5480    0.0000 C   0  0  1  0  0  0  0  0  0  0  0  0
   -2.9160   -4.9040    0.0000 O   0  0  0  0  0  0  0  0  0  0  0  0
   -4.1220    3.3880    0.0000 C   0  0  0  0  0  0  0  0  0  0  0  0
   -2.6480    3.6650    0.0000 C   0  0  0  0  0  0  0  0  0  0  0  0
   -2.1510    5.0810    0.0000 C   0  0  0  0  0  0  0  0  0  0  0  0
   -3.1290    6.2190    0.0000 C   0  0  0  0  0  0  0  0  0  0  0  0
   -4.6030    5.9410    0.0000 C   0  0  0  0  0  0  0  0  0  0  0  0
   -5.0990    4.5250    0.0000 C   0  0  0  0  0  0  0  0  0  0  0  0
   -9.0400    1.1380    0.0000 H   0  0  0  0  0  0  0  0  0  0  0  0
   -8.5590   -1.4150    0.0000 H   0  0  0  0  0  0  0  0  0  0  0  0
   -4.3680   -4.2010    0.0000 H   0  0  0  0  0  0  0  0  0  0  0  0
   -1.8940   -0.5890    0.0000 H   0  0  0  0  0  0  0  0  0  0  0  0
    0.9980   -4.5840    0.0000 H   0  0  0  0  0  0  0  0  0  0  0  0
    2.1800   -3.9460    0.0000 H   0  0  0  0  0  0  0  0  0  0  0  0
    0.7410   -1.3140    0.0000 H   0  0  0  0  0  0  0  0  0  0  0  0
    5.0300   -1.7610    0.0000 H   0  0  0  0  0  0  0  0  0  0  0  0
    6.5300   -1.7960    0.0000 H   0  0  0  0  0  0  0  0  0  0  0  0
    9.5290   -1.8650    0.0000 H   0  0  0  0  0  0  0  0  0  0  0  0
   11.0890    0.6980    0.0000 H   0  0  0  0  0  0  0  0  0  0  0  0
    9.6490    3.3300    0.0000 H   0  0  0  0  0  0  0  0  0  0  0  0
    7.4300    4.6800    0.0000 H   0  0  0  0  0  0  0  0  0  0  0  0
   -1.9030   -5.5210    0.0000 H   0  0  0  0  0  0  0  0  0  0  0  0
   -0.2480   -6.8160    0.0000 H   0  0  0  0  0  0  0  0  0  0  0  0
   -3.6190   -3.4230    0.0000 H   0  0  0  0  0  0  0  0  0  0  0  0
   -4.1060   -5.1500    0.0000 H   0  0  0  0  0  0  0  0  0  0  0  0
   -1.6700    2.5280    0.0000 H   0  0  0  0  0  0  0  0  0  0  0  0
   -0.6770    5.3590    0.0000 H   0  0  0  0  0  0  0  0  0  0  0  0
   -2.6330    7.6340    0.0000 H   0  0  0  0  0  0  0  0  0  0  0  0
   -5.5810    7.0780    0.0000 H   0  0  0  0  0  0  0  0  0  0  0  0
   -6.5730    4.2470    0.0000 H   0  0  0  0  0  0  0  0  0  0  0  0
   -2.6725    1.0161    0.0000 H   0  0  0  0  0  0  0  0  0  0  0  0
  1  2  1  0  0  0  0
  1 39  1  0  0  0  0
  1 40  1  0  0  0  0
  2  3  2  0  0  0  0
  2  7  1  0  0  0  0
  3  4  2  0  0  0  0
  4  5  1  0  0  0  0
  4 33  1  0  0  0  0
  5  6  1  0  0  0  0
  5 61  1  0  0  0  0
  6  7  2  0  0  0  0
  6 10  1  0  0  0  0
  7  8  1  0  0  0  0
  8  9  2  0  0  0  0
  9 10  1  0  0  0  0
  9 41  1  0  0  0  0
 10 11  1  0  0  0  0
 11 12  1  0  0  0  0
 11 31  1  0  0  0  0
 11 42  1  6  0  0  0
 12 13  1  0  0  0  0
 13 14  1  0  0  0  0
 13 29  1  0  0  0  0
 13 43  1  6  0  0  0
 14 15  1  0  0  0  0
 14 44  1  0  0  0  0
 14 45  1  0  0  0  0
 15 16  1  0  0  0  0
 16 17  2  0  0  0  0
 16 18  2  0  0  0  0
 16 19  1  0  0  0  0
 19 20  1  0  0  0  0
 19 46  1  0  0  0  0
 20 21  2  0  0  0  0
 20 22  1  0  0  0  0
 22 23  2  0  0  0  0
 22 27  1  0  0  0  0
 23 24  1  0  0  0  0
 23 47  1  0  0  0  0
 24 25  2  0  0  0  0
 24 48  1  0  0  0  0
 25 26  1  0  0  0  0
 25 49  1  0  0  0  0
 26 27  2  0  0  0  0
 26 50  1  0  0  0  0
 27 28  1  0  0  0  0
 28 51  1  0  0  0  0
 29 30  1  0  0  0  0
 29 31  1  0  0  0  0
 29 52  1  6  0  0  0
 30 53  1  0  0  0  0
 31 32  1  0  0  0  0
 31 54  1  6  0  0  0
 32 55  1  0  0  0  0
 33 34  2  0  0  0  0
 33 38  1  0  0  0  0
 34 35  1  0  0  0  0
 34 56  1  0  0  0  0
 35 36  2  0  0  0  0
 35 57  1  0  0  0  0
 36 37  1  0  0  0  0
 36 58  1  0  0  0  0
 37 38  2  0  0  0  0
 37 59  1  0  0  0  0
 38 60  1  0  0  0  0
M  END
$$$$
