2D_structures\o5_MMV002169_2D.pdb
 OpenBabel02272422463D

 17 17  0  0  0  0  0  0  0  0999 V2000
   -3.5600   -0.1100    0.0000 N   0  0  0  0  0  0  0  0  0  0  0  0
   -2.1230    0.3210    0.0000 N   0  0  0  0  0  0  0  0  0  0  0  0
   -1.0310   -0.7080    0.0000 C   0  0  0  0  0  0  0  0  0  0  0  0
   -1.3760   -2.1680    0.0000 O   0  0  0  0  0  0  0  0  0  0  0  0
    0.4060   -0.2770    0.0000 C   0  0  0  0  0  0  0  0  0  0  0  0
    0.7510    1.1830    0.0000 C   0  0  0  0  0  0  0  0  0  0  0  0
    2.1870    1.6130    0.0000 C   0  0  0  0  0  0  0  0  0  0  0  0
    3.2790    0.5850    0.0000 N   0  0  0  0  0  0  0  0  0  0  0  0
    2.9340   -0.8750    0.0000 C   0  0  0  0  0  0  0  0  0  0  0  0
    1.4970   -1.3060    0.0000 C   0  0  0  0  0  0  0  0  0  0  0  0
   -4.6510    0.9180    0.0000 H   0  0  0  0  0  0  0  0  0  0  0  0
   -3.9050   -1.5700    0.0000 H   0  0  0  0  0  0  0  0  0  0  0  0
   -1.7780    1.7800    0.0000 H   0  0  0  0  0  0  0  0  0  0  0  0
   -0.3410    2.2110    0.0000 H   0  0  0  0  0  0  0  0  0  0  0  0
    2.5330    3.0730    0.0000 H   0  0  0  0  0  0  0  0  0  0  0  0
    4.0260   -1.9040    0.0000 H   0  0  0  0  0  0  0  0  0  0  0  0
    1.1520   -2.7660    0.0000 H   0  0  0  0  0  0  0  0  0  0  0  0
  1  2  1  0  0  0  0
  1 11  1  0  0  0  0
  1 12  1  0  0  0  0
  2  3  1  0  0  0  0
  2 13  1  0  0  0  0
  3  4  2  0  0  0  0
  3  5  1  0  0  0  0
  5  6  2  0  0  0  0
  5 10  1  0  0  0  0
  6  7  1  0  0  0  0
  6 14  1  0  0  0  0
  7  8  2  0  0  0  0
  7 15  1  0  0  0  0
  8  9  1  0  0  0  0
  9 10  2  0  0  0  0
  9 16  1  0  0  0  0
 10 17  1  0  0  0  0
M  END
$$$$
