2D_structures\o61_MMV1581559_2D.pdb
 OpenBabel02272422463D

 59 63  0  0  0  0  0  0  0  0999 V2000
   -4.3710    4.1880    0.0000 C   0  0  0  0  0  0  0  0  0  0  0  0
   -2.8720    4.1300    0.0000 C   0  0  0  0  0  0  0  0  0  0  0  0
   -1.3730    4.0720    0.0000 C   0  0  0  0  0  0  0  0  0  0  0  0
   -2.9300    2.6310    0.0000 C   0  0  0  0  0  0  0  0  0  0  0  0
   -2.9880    1.1320    0.0000 N   0  0  0  0  0  0  0  0  0  0  0  0
   -4.3150    0.4330    0.0000 C   0  0  0  0  0  0  0  0  0  0  0  0
   -5.5840    1.2320    0.0000 O   0  0  0  0  0  0  0  0  0  0  0  0
   -4.3730   -1.0660    0.0000 N   0  0  0  0  0  0  0  0  0  0  0  0
   -5.7000   -1.7650    0.0000 C   0  0  0  0  0  0  0  0  0  0  0  0
   -3.1040   -1.8660    0.0000 C   0  0  0  0  0  0  0  0  0  0  0  0
   -3.1620   -3.3650    0.0000 O   0  0  0  0  0  0  0  0  0  0  0  0
   -1.7770   -1.1670    0.0000 C   0  0  0  0  0  0  0  0  0  0  0  0
   -1.7190    0.3320    0.0000 C   0  0  0  0  0  0  0  0  0  0  0  0
   -0.2750    0.7400    0.0000 N   0  0  0  0  0  0  0  0  0  0  0  0
    0.5590   -0.5060    0.0000 N   0  0  0  0  0  0  0  0  0  0  0  0
    2.0580   -0.5640    0.0000 C   0  0  0  0  0  0  0  0  0  0  0  0
    3.5570   -0.6220    0.0000 C   0  0  0  0  0  0  0  0  0  0  0  0
    4.2560   -1.9490    0.0000 C   0  0  0  0  0  0  0  0  0  0  0  0
    5.7550   -2.0070    0.0000 C   0  0  0  0  0  0  0  0  0  0  0  0
    6.5540   -0.7380    0.0000 C   0  0  0  0  0  0  0  0  0  0  0  0
    5.8550    0.5890    0.0000 C   0  0  0  0  0  0  0  0  0  0  0  0
    6.6550    1.8580    0.0000 C   0  0  0  0  0  0  0  0  0  0  0  0
    5.9560    3.1850    0.0000 C   0  0  0  0  0  0  0  0  0  0  0  0
    4.4570    3.2430    0.0000 C   0  0  0  0  0  0  0  0  0  0  0  0
    3.6570    1.9740    0.0000 C   0  0  0  0  0  0  0  0  0  0  0  0
    4.3560    0.6470    0.0000 C   0  0  0  0  0  0  0  0  0  0  0  0
   -0.3690   -1.6850    0.0000 C   0  0  0  0  0  0  0  0  0  0  0  0
    0.0390   -3.1280    0.0000 C   0  0  0  0  0  0  0  0  0  0  0  0
    1.4470   -3.6470    0.0000 C   0  0  0  0  0  0  0  0  0  0  0  0
    1.3890   -5.1460    0.0000 N   0  0  0  0  0  0  0  0  0  0  0  0
   -0.0550   -5.5540    0.0000 C   0  0  0  0  0  0  0  0  0  0  0  0
   -0.8890   -4.3070    0.0000 N   0  0  0  0  0  0  0  0  0  0  0  0
   -2.3880   -4.2490    0.0000 C   0  0  0  0  0  0  0  0  0  0  0  0
   -5.8700    4.2460    0.0000 H   0  0  0  0  0  0  0  0  0  0  0  0
   -4.3130    5.6870    0.0000 H   0  0  0  0  0  0  0  0  0  0  0  0
   -4.5130    3.3130    0.0000 H   0  0  0  0  0  0  0  0  0  0  0  0
   -2.8140    5.6290    0.0000 H   0  0  0  0  0  0  0  0  0  0  0  0
    0.1260    4.0140    0.0000 H   0  0  0  0  0  0  0  0  0  0  0  0
   -1.3150    5.5710    0.0000 H   0  0  0  0  0  0  0  0  0  0  0  0
   -1.2990    3.1890    0.0000 H   0  0  0  0  0  0  0  0  0  0  0  0
   -2.0560    2.4890    0.0000 H   0  0  0  0  0  0  0  0  0  0  0  0
   -3.8120    2.5570    0.0000 H   0  0  0  0  0  0  0  0  0  0  0  0
   -7.0270   -2.4650    0.0000 H   0  0  0  0  0  0  0  0  0  0  0  0
   -5.0010   -3.0920    0.0000 H   0  0  0  0  0  0  0  0  0  0  0  0
   -6.3990   -0.4380    0.0000 H   0  0  0  0  0  0  0  0  0  0  0  0
    2.0060   -1.9130    0.0000 H   0  0  0  0  0  0  0  0  0  0  0  0
    2.1160    0.9350    0.0000 H   0  0  0  0  0  0  0  0  0  0  0  0
    3.4020   -2.9950    0.0000 H   0  0  0  0  0  0  0  0  0  0  0  0
    6.4540   -3.3340    0.0000 H   0  0  0  0  0  0  0  0  0  0  0  0
    8.0530   -0.7960    0.0000 H   0  0  0  0  0  0  0  0  0  0  0  0
    8.1540    1.8000    0.0000 H   0  0  0  0  0  0  0  0  0  0  0  0
    6.7550    4.4540    0.0000 H   0  0  0  0  0  0  0  0  0  0  0  0
    3.7570    4.5700    0.0000 H   0  0  0  0  0  0  0  0  0  0  0  0
    2.1580    2.0320    0.0000 H   0  0  0  0  0  0  0  0  0  0  0  0
    2.3670   -2.8530    0.0000 H   0  0  0  0  0  0  0  0  0  0  0  0
   -0.5730   -6.9610    0.0000 H   0  0  0  0  0  0  0  0  0  0  0  0
   -3.8870   -4.1910    0.0000 H   0  0  0  0  0  0  0  0  0  0  0  0
   -2.4460   -5.7480    0.0000 H   0  0  0  0  0  0  0  0  0  0  0  0
   -2.3300   -2.7500    0.0000 H   0  0  0  0  0  0  0  0  0  0  0  0
  1  2  1  0  0  0  0
  1 34  1  0  0  0  0
  1 35  1  0  0  0  0
  1 36  1  0  0  0  0
  2  3  1  0  0  0  0
  2  4  1  0  0  0  0
  2 37  1  0  0  0  0
  3 38  1  0  0  0  0
  3 39  1  0  0  0  0
  3 40  1  0  0  0  0
  4  5  1  0  0  0  0
  4 41  1  0  0  0  0
  4 42  1  0  0  0  0
  5  6  1  0  0  0  0
  5 13  1  0  0  0  0
  6  7  2  0  0  0  0
  6  8  1  0  0  0  0
  8  9  1  0  0  0  0
  8 10  1  0  0  0  0
  9 43  1  0  0  0  0
  9 44  1  0  0  0  0
  9 45  1  0  0  0  0
 10 11  2  0  0  0  0
 10 12  1  0  0  0  0
 12 13  1  0  0  0  0
 12 27  2  0  0  0  0
 13 14  2  0  0  0  0
 14 15  1  0  0  0  0
 15 16  1  0  0  0  0
 15 27  1  0  0  0  0
 16 17  1  0  0  0  0
 16 46  1  0  0  0  0
 16 47  1  0  0  0  0
 17 18  2  0  0  0  0
 17 26  1  0  0  0  0
 18 19  1  0  0  0  0
 18 48  1  0  0  0  0
 19 20  2  0  0  0  0
 19 49  1  0  0  0  0
 20 21  1  0  0  0  0
 20 50  1  0  0  0  0
 21 22  2  0  0  0  0
 21 26  1  0  0  0  0
 22 23  1  0  0  0  0
 22 51  1  0  0  0  0
 23 24  2  0  0  0  0
 23 52  1  0  0  0  0
 24 25  1  0  0  0  0
 24 53  1  0  0  0  0
 25 26  2  0  0  0  0
 25 54  1  0  0  0  0
 27 28  1  0  0  0  0
 28 29  2  0  0  0  0
 28 32  1  0  0  0  0
 29 30  1  0  0  0  0
 29 55  1  0  0  0  0
 30 31  2  0  0  0  0
 31 32  1  0  0  0  0
 31 56  1  0  0  0  0
 32 33  1  0  0  0  0
 33 57  1  0  0  0  0
 33 58  1  0  0  0  0
 33 59  1  0  0  0  0
M  END
$$$$
