2D_structures\o63_MMV1580855_2D.pdb
 OpenBabel02272422463D

 29 31  0  0  0  0  0  0  0  0999 V2000
    2.6600   -2.4190    0.0000 O   0  0  0  0  0  0  0  0  0  0  0  0
    3.8380   -1.4910    0.0000 C   0  0  0  0  0  0  0  0  0  0  0  0
    5.2310   -2.0470    0.0000 O   0  0  0  0  0  0  0  0  0  0  0  0
    3.6230   -0.0060    0.0000 C   0  0  0  0  0  0  0  0  0  0  0  0
    4.6980    1.0400    0.0000 S   0  0  0  0  0  0  0  0  0  0  0  0
    4.0350    2.3860    0.0000 C   0  0  0  0  0  0  0  0  0  0  0  0
    2.5500    2.1710    0.0000 C   0  0  0  0  0  0  0  0  0  0  0  0
    2.2960    0.6920    0.0000 C   0  0  0  0  0  0  0  0  0  0  0  0
    0.9510    0.0290    0.0000 S   0  0  0  0  0  0  0  0  0  0  0  0
    0.2870    1.3750    0.0000 O   0  0  0  0  0  0  0  0  0  0  0  0
    1.6140   -1.3160    0.0000 O   0  0  0  0  0  0  0  0  0  0  0  0
   -0.3950   -0.6340    0.0000 N   0  0  0  0  0  0  0  0  0  0  0  0
   -0.6490   -2.1120    0.0000 C   0  0  0  0  0  0  0  0  0  0  0  0
   -2.1340   -2.3270    0.0000 C   0  0  0  0  0  0  0  0  0  0  0  0
   -2.7970   -0.9820    0.0000 C   0  0  0  0  0  0  0  0  0  0  0  0
   -4.2410   -0.5740    0.0000 C   0  0  0  0  0  0  0  0  0  0  0  0
   -4.6090    0.8800    0.0000 C   0  0  0  0  0  0  0  0  0  0  0  0
   -6.0530    1.2870    0.0000 Br  0  0  0  0  0  0  0  0  0  0  0  0
   -3.5350    1.9260    0.0000 C   0  0  0  0  0  0  0  0  0  0  0  0
   -2.0910    1.5190    0.0000 C   0  0  0  0  0  0  0  0  0  0  0  0
   -1.7220    0.0650    0.0000 C   0  0  0  0  0  0  0  0  0  0  0  0
    2.8750   -3.9040    0.0000 H   0  0  0  0  0  0  0  0  0  0  0  0
    4.7340    3.7130    0.0000 H   0  0  0  0  0  0  0  0  0  0  0  0
    1.5040    3.2450    0.0000 H   0  0  0  0  0  0  0  0  0  0  0  0
    0.3970   -3.1870    0.0000 H   0  0  0  0  0  0  0  0  0  0  0  0
   -2.8330   -3.6540    0.0000 H   0  0  0  0  0  0  0  0  0  0  0  0
   -5.3150   -1.6210    0.0000 H   0  0  0  0  0  0  0  0  0  0  0  0
   -3.9040    3.3800    0.0000 H   0  0  0  0  0  0  0  0  0  0  0  0
   -1.0160    2.5650    0.0000 H   0  0  0  0  0  0  0  0  0  0  0  0
  1  2  1  0  0  0  0
  1 22  1  0  0  0  0
  2  3  2  0  0  0  0
  2  4  1  0  0  0  0
  4  5  1  0  0  0  0
  4  8  2  0  0  0  0
  5  6  1  0  0  0  0
  6  7  2  0  0  0  0
  6 23  1  0  0  0  0
  7  8  1  0  0  0  0
  7 24  1  0  0  0  0
  8  9  1  0  0  0  0
  9 10  2  0  0  0  0
  9 11  2  0  0  0  0
  9 12  1  0  0  0  0
 12 13  1  0  0  0  0
 12 21  1  0  0  0  0
 13 14  2  0  0  0  0
 13 25  1  0  0  0  0
 14 15  1  0  0  0  0
 14 26  1  0  0  0  0
 15 16  2  0  0  0  0
 15 21  1  0  0  0  0
 16 17  1  0  0  0  0
 16 27  1  0  0  0  0
 17 18  1  0  0  0  0
 17 19  2  0  0  0  0
 19 20  1  0  0  0  0
 19 28  1  0  0  0  0
 20 21  2  0  0  0  0
 20 29  1  0  0  0  0
M  END
$$$$
