2D_structures\o64_MMV1580852_2D.pdb
 OpenBabel02272422463D

 46 48  0  0  0  0  0  0  0  0999 V2000
    8.9070   -0.9410    0.0000 C   0  0  0  0  0  0  0  0  0  0  0  0
    7.4300   -0.6810    0.0000 C   0  0  0  0  0  0  0  0  0  0  0  0
    5.9520   -0.4200    0.0000 C   0  0  0  0  0  0  0  0  0  0  0  0
    4.4750   -0.1590    0.0000 C   0  0  0  0  0  0  0  0  0  0  0  0
    2.9980    0.1020    0.0000 C   0  0  0  0  0  0  0  0  0  0  0  0
    2.0340   -1.0470    0.0000 C   0  0  0  0  0  0  0  0  0  0  0  0
    0.5570   -0.7860    0.0000 C   0  0  0  0  0  0  0  0  0  0  0  0
    0.0440    0.6230    0.0000 C   0  0  0  0  0  0  0  0  0  0  0  0
    1.0080    1.7720    0.0000 C   0  0  0  0  0  0  0  0  0  0  0  0
    2.4850    1.5110    0.0000 C   0  0  0  0  0  0  0  0  0  0  0  0
   -1.4330    0.8840    0.0000 C   0  0  0  0  0  0  0  0  0  0  0  0
   -1.9460    2.2940    0.0000 C   0  0  0  0  0  0  0  0  0  0  0  0
   -3.4230    2.5540    0.0000 C   0  0  0  0  0  0  0  0  0  0  0  0
   -4.3880    1.4050    0.0000 C   0  0  0  0  0  0  0  0  0  0  0  0
   -3.8750   -0.0040    0.0000 C   0  0  0  0  0  0  0  0  0  0  0  0
   -2.3980   -0.2650    0.0000 N   0  0  0  0  0  0  0  0  0  0  0  0
   -4.8390   -1.1530    0.0000 C   0  0  0  0  0  0  0  0  0  0  0  0
   -6.3170   -0.8920    0.0000 C   0  0  0  0  0  0  0  0  0  0  0  0
   -7.2810   -2.0410    0.0000 C   0  0  0  0  0  0  0  0  0  0  0  0
   -6.7680   -3.4510    0.0000 C   0  0  0  0  0  0  0  0  0  0  0  0
   -7.7330   -4.6000    0.0000 Cl  0  0  0  0  0  0  0  0  0  0  0  0
   -5.2910   -3.7120    0.0000 C   0  0  0  0  0  0  0  0  0  0  0  0
   -4.3270   -2.5630    0.0000 C   0  0  0  0  0  0  0  0  0  0  0  0
   -3.9360    3.9640    0.0000 C   0  0  0  0  0  0  0  0  0  0  0  0
   -5.4130    4.2250    0.0000 O   0  0  0  0  0  0  0  0  0  0  0  0
   -2.9720    5.1130    0.0000 O   0  0  0  0  0  0  0  0  0  0  0  0
   10.3840   -1.2020    0.0000 H   0  0  0  0  0  0  0  0  0  0  0  0
    9.1680    0.5360    0.0000 H   0  0  0  0  0  0  0  0  0  0  0  0
    8.6460   -2.4190    0.0000 H   0  0  0  0  0  0  0  0  0  0  0  0
    7.6900    0.7960    0.0000 H   0  0  0  0  0  0  0  0  0  0  0  0
    7.1690   -2.1580    0.0000 H   0  0  0  0  0  0  0  0  0  0  0  0
    5.6920   -1.8970    0.0000 H   0  0  0  0  0  0  0  0  0  0  0  0
    6.2130    1.0570    0.0000 H   0  0  0  0  0  0  0  0  0  0  0  0
    4.2140   -1.6360    0.0000 H   0  0  0  0  0  0  0  0  0  0  0  0
    4.7360    1.3180    0.0000 H   0  0  0  0  0  0  0  0  0  0  0  0
    2.5460   -2.4570    0.0000 H   0  0  0  0  0  0  0  0  0  0  0  0
   -0.4080   -1.9350    0.0000 H   0  0  0  0  0  0  0  0  0  0  0  0
    0.4950    3.1820    0.0000 H   0  0  0  0  0  0  0  0  0  0  0  0
    3.4500    2.6600    0.0000 H   0  0  0  0  0  0  0  0  0  0  0  0
   -0.9820    3.4420    0.0000 H   0  0  0  0  0  0  0  0  0  0  0  0
   -5.8650    1.6660    0.0000 H   0  0  0  0  0  0  0  0  0  0  0  0
   -6.8290    0.5170    0.0000 H   0  0  0  0  0  0  0  0  0  0  0  0
   -8.7580   -1.7800    0.0000 H   0  0  0  0  0  0  0  0  0  0  0  0
   -4.7780   -5.1210    0.0000 H   0  0  0  0  0  0  0  0  0  0  0  0
   -2.8490   -2.8230    0.0000 H   0  0  0  0  0  0  0  0  0  0  0  0
   -3.4840    6.5220    0.0000 H   0  0  0  0  0  0  0  0  0  0  0  0
  1  2  1  0  0  0  0
  1 27  1  0  0  0  0
  1 28  1  0  0  0  0
  1 29  1  0  0  0  0
  2  3  1  0  0  0  0
  2 30  1  0  0  0  0
  2 31  1  0  0  0  0
  3  4  1  0  0  0  0
  3 32  1  0  0  0  0
  3 33  1  0  0  0  0
  4  5  1  0  0  0  0
  4 34  1  0  0  0  0
  4 35  1  0  0  0  0
  5  6  2  0  0  0  0
  5 10  1  0  0  0  0
  6  7  1  0  0  0  0
  6 36  1  0  0  0  0
  7  8  2  0  0  0  0
  7 37  1  0  0  0  0
  8  9  1  0  0  0  0
  8 11  1  0  0  0  0
  9 10  2  0  0  0  0
  9 38  1  0  0  0  0
 10 39  1  0  0  0  0
 11 12  2  0  0  0  0
 11 16  1  0  0  0  0
 12 13  1  0  0  0  0
 12 40  1  0  0  0  0
 13 14  2  0  0  0  0
 13 24  1  0  0  0  0
 14 15  1  0  0  0  0
 14 41  1  0  0  0  0
 15 16  2  0  0  0  0
 15 17  1  0  0  0  0
 17 18  2  0  0  0  0
 17 23  1  0  0  0  0
 18 19  1  0  0  0  0
 18 42  1  0  0  0  0
 19 20  2  0  0  0  0
 19 43  1  0  0  0  0
 20 21  1  0  0  0  0
 20 22  1  0  0  0  0
 22 23  2  0  0  0  0
 22 44  1  0  0  0  0
 23 45  1  0  0  0  0
 24 25  2  0  0  0  0
 24 26  1  0  0  0  0
 26 46  1  0  0  0  0
M  END
$$$$
