2D_structures\o67_MMV1579779_2D.pdb
 OpenBabel02272422463D

 37 39  0  0  0  0  0  0  0  0999 V2000
   -6.2110    1.8900    0.0000 C   0  0  0  0  0  0  0  0  0  0  0  0
   -4.7590    1.5150    0.0000 C   0  0  0  0  0  0  0  0  0  0  0  0
   -3.7080    2.5850    0.0000 O   0  0  0  0  0  0  0  0  0  0  0  0
   -4.3580    0.0690    0.0000 N   0  0  0  0  0  0  0  0  0  0  0  0
   -2.9050   -0.3060    0.0000 C   0  0  0  0  0  0  0  0  0  0  0  0
   -1.8540    0.7650    0.0000 C   0  0  0  0  0  0  0  0  0  0  0  0
   -0.4020    0.3900    0.0000 C   0  0  0  0  0  0  0  0  0  0  0  0
    0.6490    1.4600    0.0000 N   0  0  0  0  0  0  0  0  0  0  0  0
    2.1020    1.0850    0.0000 S   0  0  0  0  0  0  0  0  0  0  0  0
    1.7260   -0.3680    0.0000 O   0  0  0  0  0  0  0  0  0  0  0  0
    2.4770    2.5370    0.0000 O   0  0  0  0  0  0  0  0  0  0  0  0
    3.5540    0.7100    0.0000 C   0  0  0  0  0  0  0  0  0  0  0  0
    3.9550   -0.7360    0.0000 C   0  0  0  0  0  0  0  0  0  0  0  0
    5.4080   -1.1110    0.0000 C   0  0  0  0  0  0  0  0  0  0  0  0
    6.4590   -0.0400    0.0000 C   0  0  0  0  0  0  0  0  0  0  0  0
    7.9110   -0.4150    0.0000 Cl  0  0  0  0  0  0  0  0  0  0  0  0
    6.0570    1.4050    0.0000 C   0  0  0  0  0  0  0  0  0  0  0  0
    4.6050    1.7800    0.0000 C   0  0  0  0  0  0  0  0  0  0  0  0
   -0.0000   -1.0560    0.0000 C   0  0  0  0  0  0  0  0  0  0  0  0
   -1.0510   -2.1260    0.0000 C   0  0  0  0  0  0  0  0  0  0  0  0
   -0.9590   -3.6230    0.0000 C   0  0  0  0  0  0  0  0  0  0  0  0
    0.3060   -4.4290    0.0000 Cl  0  0  0  0  0  0  0  0  0  0  0  0
   -2.3550   -4.1730    0.0000 N   0  0  0  0  0  0  0  0  0  0  0  0
   -3.3090   -3.0160    0.0000 N   0  0  0  0  0  0  0  0  0  0  0  0
   -2.5040   -1.7510    0.0000 C   0  0  0  0  0  0  0  0  0  0  0  0
   -7.6640    2.2650    0.0000 H   0  0  0  0  0  0  0  0  0  0  0  0
   -5.8360    3.3420    0.0000 H   0  0  0  0  0  0  0  0  0  0  0  0
   -6.5860    0.4370    0.0000 H   0  0  0  0  0  0  0  0  0  0  0  0
   -5.4090   -1.0010    0.0000 H   0  0  0  0  0  0  0  0  0  0  0  0
   -2.2560    2.2100    0.0000 H   0  0  0  0  0  0  0  0  0  0  0  0
    0.2480    2.9050    0.0000 H   0  0  0  0  0  0  0  0  0  0  0  0
    2.9040   -1.8060    0.0000 H   0  0  0  0  0  0  0  0  0  0  0  0
    5.8090   -2.5560    0.0000 H   0  0  0  0  0  0  0  0  0  0  0  0
    7.1080    2.4750    0.0000 H   0  0  0  0  0  0  0  0  0  0  0  0
    4.2030    3.2250    0.0000 H   0  0  0  0  0  0  0  0  0  0  0  0
    1.4520   -1.4310    0.0000 H   0  0  0  0  0  0  0  0  0  0  0  0
   -4.8060   -3.1080    0.0000 H   0  0  0  0  0  0  0  0  0  0  0  0
  1  2  1  0  0  0  0
  1 26  1  0  0  0  0
  1 27  1  0  0  0  0
  1 28  1  0  0  0  0
  2  3  2  0  0  0  0
  2  4  1  0  0  0  0
  4  5  1  0  0  0  0
  4 29  1  0  0  0  0
  5  6  2  0  0  0  0
  5 25  1  0  0  0  0
  6  7  1  0  0  0  0
  6 30  1  0  0  0  0
  7  8  1  0  0  0  0
  7 19  2  0  0  0  0
  8  9  1  0  0  0  0
  8 31  1  0  0  0  0
  9 10  2  0  0  0  0
  9 11  2  0  0  0  0
  9 12  1  0  0  0  0
 12 13  2  0  0  0  0
 12 18  1  0  0  0  0
 13 14  1  0  0  0  0
 13 32  1  0  0  0  0
 14 15  2  0  0  0  0
 14 33  1  0  0  0  0
 15 16  1  0  0  0  0
 15 17  1  0  0  0  0
 17 18  2  0  0  0  0
 17 34  1  0  0  0  0
 18 35  1  0  0  0  0
 19 20  1  0  0  0  0
 19 36  1  0  0  0  0
 20 21  1  0  0  0  0
 20 25  2  0  0  0  0
 21 22  1  0  0  0  0
 21 23  2  0  0  0  0
 23 24  1  0  0  0  0
 24 25  1  0  0  0  0
 24 37  1  0  0  0  0
M  END
$$$$
