2D_structures\o68_MMV1579778_2D.pdb
 OpenBabel02272422463D

 44 45  0  0  1  0  0  0  0  0999 V2000
    0.0210    2.5740    0.0000 C   0  0  0  0  0  0  0  0  0  0  0  0
   -1.1730    1.6660    0.0000 C   0  0  1  0  0  0  0  0  0  0  0  0
   -0.2640    0.4720    0.0000 N   0  0  0  0  0  0  0  0  0  0  0  0
   -0.8430   -0.9110    0.0000 C   0  0  1  0  0  0  0  0  0  0  0  0
    0.5400   -1.4910    0.0000 C   0  0  0  0  0  0  0  0  0  0  0  0
    1.9240   -2.0700    0.0000 C   0  0  0  0  0  0  0  0  0  0  0  0
    2.1140   -3.5580    0.0000 O   0  0  0  0  0  0  0  0  0  0  0  0
    3.1170   -1.1610    0.0000 C   0  0  0  0  0  0  0  0  0  0  0  0
    4.5010   -1.7400    0.0000 C   0  0  0  0  0  0  0  0  0  0  0  0
    5.6940   -0.8320    0.0000 C   0  0  0  0  0  0  0  0  0  0  0  0
    5.5040    0.6560    0.0000 C   0  0  0  0  0  0  0  0  0  0  0  0
    4.1210    1.2350    0.0000 C   0  0  0  0  0  0  0  0  0  0  0  0
    2.9270    0.3270    0.0000 C   0  0  0  0  0  0  0  0  0  0  0  0
    1.5430    0.9060    0.0000 C   0  0  0  0  0  0  0  0  0  0  0  0
    0.0990    1.3120    0.0000 F   0  0  0  0  0  0  0  0  0  0  0  0
    2.1230    2.2900    0.0000 F   0  0  0  0  0  0  0  0  0  0  0  0
    0.8000   -0.3970    0.0000 F   0  0  0  0  0  0  0  0  0  0  0  0
   -2.2270   -0.3320    0.0000 C   0  0  0  0  0  0  0  0  0  0  0  0
   -2.5170    0.4110    0.0000 O   0  0  0  0  0  0  0  0  0  0  0  0
   -3.4210   -1.2410    0.0000 O   0  0  0  0  0  0  0  0  0  0  0  0
   -2.3660    0.7570    0.0000 C   0  0  0  0  0  0  0  0  0  0  0  0
   -3.7500    1.3360    0.0000 C   0  0  0  0  0  0  0  0  0  0  0  0
   -4.9430    0.4280    0.0000 C   0  0  0  0  0  0  0  0  0  0  0  0
   -4.7530   -1.0600    0.0000 C   0  0  0  0  0  0  0  0  0  0  0  0
   -3.3700   -1.6390    0.0000 C   0  0  0  0  0  0  0  0  0  0  0  0
   -2.1760   -0.7310    0.0000 C   0  0  0  0  0  0  0  0  0  0  0  0
    1.2140    3.4830    0.0000 H   0  0  0  0  0  0  0  0  0  0  0  0
   -0.8880    3.7680    0.0000 H   0  0  0  0  0  0  0  0  0  0  0  0
    0.6130    1.1970    0.0000 H   0  0  0  0  0  0  0  0  0  0  0  0
   -2.0820    2.8590    0.0000 H   0  0  0  0  0  0  0  0  0  0  0  0
    1.1330    1.0170    0.0000 H   0  0  0  0  0  0  0  0  0  0  0  0
   -1.4230   -2.2950    0.0000 H   0  0  0  0  0  0  0  0  0  0  0  0
   -0.0390   -2.8740    0.0000 H   0  0  0  0  0  0  0  0  0  0  0  0
    1.1190   -0.1070    0.0000 H   0  0  0  0  0  0  0  0  0  0  0  0
    4.6910   -3.2280    0.0000 H   0  0  0  0  0  0  0  0  0  0  0  0
    7.0780   -1.4110    0.0000 H   0  0  0  0  0  0  0  0  0  0  0  0
    6.6980    1.5650    0.0000 H   0  0  0  0  0  0  0  0  0  0  0  0
    3.9300    2.7230    0.0000 H   0  0  0  0  0  0  0  0  0  0  0  0
   -4.9030   -1.0140    0.0000 H   0  0  0  0  0  0  0  0  0  0  0  0
   -3.9400    2.8240    0.0000 H   0  0  0  0  0  0  0  0  0  0  0  0
   -6.3270    1.0070    0.0000 H   0  0  0  0  0  0  0  0  0  0  0  0
   -5.9470   -1.9690    0.0000 H   0  0  0  0  0  0  0  0  0  0  0  0
   -3.1790   -3.1270    0.0000 H   0  0  0  0  0  0  0  0  0  0  0  0
   -0.9740   -1.6280    0.0000 H   0  0  0  0  0  0  0  0  0  0  0  0
  1  2  1  0  0  0  0
  1 27  1  0  0  0  0
  1 28  1  0  0  0  0
  1 29  1  0  0  0  0
  2  3  1  0  0  0  0
  2 21  1  0  0  0  0
  2 30  1  6  0  0  0
  3  4  1  0  0  0  0
  3 31  1  0  0  0  0
  4  5  1  0  0  0  0
  4 18  1  0  0  0  0
  4 32  1  6  0  0  0
  5  6  1  0  0  0  0
  5 33  1  0  0  0  0
  5 34  1  0  0  0  0
  6  7  2  0  0  0  0
  6  8  1  0  0  0  0
  8  9  2  0  0  0  0
  8 13  1  0  0  0  0
  9 10  1  0  0  0  0
  9 35  1  0  0  0  0
 10 11  2  0  0  0  0
 10 36  1  0  0  0  0
 11 12  1  0  0  0  0
 11 37  1  0  0  0  0
 12 13  2  0  0  0  0
 12 38  1  0  0  0  0
 13 14  1  0  0  0  0
 14 15  1  0  0  0  0
 14 16  1  0  0  0  0
 14 17  1  0  0  0  0
 18 19  2  0  0  0  0
 18 20  1  0  0  0  0
 20 39  1  0  0  0  0
 21 22  2  0  0  0  0
 21 26  1  0  0  0  0
 22 23  1  0  0  0  0
 22 40  1  0  0  0  0
 23 24  2  0  0  0  0
 23 41  1  0  0  0  0
 24 25  1  0  0  0  0
 24 42  1  0  0  0  0
 25 26  2  0  0  0  0
 25 43  1  0  0  0  0
 26 44  1  0  0  0  0
M  END
$$$$
