2D_structures\o6_MMV002612_2D.pdb
 OpenBabel02272422463D

 29 31  0  0  1  0  0  0  0  0999 V2000
    5.5780    1.2910    0.0000 O   0  0  0  0  0  0  0  0  0  0  0  0
    4.2670    0.5620    0.0000 C   0  0  0  0  0  0  0  0  0  0  0  0
    2.9800    1.3340    0.0000 C   0  0  0  0  0  0  0  0  0  0  0  0
    1.6690    0.6050    0.0000 C   0  0  0  0  0  0  0  0  0  0  0  0
    1.6450   -0.8950    0.0000 C   0  0  1  0  0  0  0  0  0  0  0  0
    0.1720   -0.6100    0.0000 N   0  0  0  0  0  0  0  0  0  0  0  0
   -0.9240   -1.6340    0.0000 C   0  0  0  0  0  0  0  0  0  0  0  0
   -0.7400   -3.1230    0.0000 O   0  0  0  0  0  0  0  0  0  0  0  0
   -2.2370   -0.9080    0.0000 C   0  0  0  0  0  0  0  0  0  0  0  0
   -3.6550   -1.3980    0.0000 C   0  0  0  0  0  0  0  0  0  0  0  0
   -4.7880   -0.4150    0.0000 C   0  0  0  0  0  0  0  0  0  0  0  0
   -4.5030    1.0580    0.0000 C   0  0  0  0  0  0  0  0  0  0  0  0
   -3.0850    1.5470    0.0000 C   0  0  0  0  0  0  0  0  0  0  0  0
   -1.9520    0.5650    0.0000 C   0  0  0  0  0  0  0  0  0  0  0  0
   -0.4630    0.7490    0.0000 C   0  0  0  0  0  0  0  0  0  0  0  0
    0.2620    2.0620    0.0000 O   0  0  0  0  0  0  0  0  0  0  0  0
    2.9310   -1.6660    0.0000 C   0  0  0  0  0  0  0  0  0  0  0  0
    2.9060   -3.1660    0.0000 O   0  0  0  0  0  0  0  0  0  0  0  0
    4.2420   -0.9370    0.0000 N   0  0  0  0  0  0  0  0  0  0  0  0
    3.9630    2.4670    0.0000 H   0  0  0  0  0  0  0  0  0  0  0  0
    2.0350    2.4980    0.0000 H   0  0  0  0  0  0  0  0  0  0  0  0
    1.1790    2.0230    0.0000 H   0  0  0  0  0  0  0  0  0  0  0  0
    0.4590    0.7100    0.0000 H   0  0  0  0  0  0  0  0  0  0  0  0
    1.1080   -2.2960    0.0000 H   0  0  0  0  0  0  0  0  0  0  0  0
   -3.9390   -2.8710    0.0000 H   0  0  0  0  0  0  0  0  0  0  0  0
   -6.2050   -0.9050    0.0000 H   0  0  0  0  0  0  0  0  0  0  0  0
   -5.6360    2.0410    0.0000 H   0  0  0  0  0  0  0  0  0  0  0  0
   -2.8000    3.0200    0.0000 H   0  0  0  0  0  0  0  0  0  0  0  0
    5.5290   -1.7090    0.0000 H   0  0  0  0  0  0  0  0  0  0  0  0
  1  2  2  0  0  0  0
  2  3  1  0  0  0  0
  2 19  1  0  0  0  0
  3  4  1  0  0  0  0
  3 20  1  0  0  0  0
  3 21  1  0  0  0  0
  4  5  1  0  0  0  0
  4 22  1  0  0  0  0
  4 23  1  0  0  0  0
  5  6  1  0  0  0  0
  5 17  1  0  0  0  0
  5 24  1  1  0  0  0
  6  7  1  0  0  0  0
  6 15  1  0  0  0  0
  7  8  2  0  0  0  0
  7  9  1  0  0  0  0
  9 10  2  0  0  0  0
  9 14  1  0  0  0  0
 10 11  1  0  0  0  0
 10 25  1  0  0  0  0
 11 12  2  0  0  0  0
 11 26  1  0  0  0  0
 12 13  1  0  0  0  0
 12 27  1  0  0  0  0
 13 14  2  0  0  0  0
 13 28  1  0  0  0  0
 14 15  1  0  0  0  0
 15 16  2  0  0  0  0
 17 18  2  0  0  0  0
 17 19  1  0  0  0  0
 19 29  1  0  0  0  0
M  END
$$$$
