2D_structures\o72_MMV975972_2D.pdb
 OpenBabel02272422463D

 26 28  0  0  0  0  0  0  0  0999 V2000
    4.7140   -1.8100    0.0000 N   0  0  0  0  0  0  0  0  0  0  0  0
    3.8170   -0.6080    0.0000 C   0  0  0  0  0  0  0  0  0  0  0  0
    2.3270   -0.7840    0.0000 C   0  0  0  0  0  0  0  0  0  0  0  0
    1.4300    0.4190    0.0000 C   0  0  0  0  0  0  0  0  0  0  0  0
    2.0230    1.7970    0.0000 N   0  0  0  0  0  0  0  0  0  0  0  0
    3.5120    1.9720    0.0000 N   0  0  0  0  0  0  0  0  0  0  0  0
    4.4090    0.7700    0.0000 C   0  0  0  0  0  0  0  0  0  0  0  0
    5.8990    0.9460    0.0000 O   0  0  0  0  0  0  0  0  0  0  0  0
   -0.0600    0.2430    0.0000 C   0  0  0  0  0  0  0  0  0  0  0  0
   -0.7930   -1.0660    0.0000 N   0  0  0  0  0  0  0  0  0  0  0  0
   -2.2640   -0.7720    0.0000 C   0  0  0  0  0  0  0  0  0  0  0  0
   -3.4660   -1.6690    0.0000 C   0  0  0  0  0  0  0  0  0  0  0  0
   -4.8440   -1.0770    0.0000 C   0  0  0  0  0  0  0  0  0  0  0  0
   -5.0200    0.4130    0.0000 C   0  0  0  0  0  0  0  0  0  0  0  0
   -3.8180    1.3100    0.0000 C   0  0  0  0  0  0  0  0  0  0  0  0
   -2.4400    0.7170    0.0000 C   0  0  0  0  0  0  0  0  0  0  0  0
   -1.0770    1.3450    0.0000 N   0  0  0  0  0  0  0  0  0  0  0  0
    4.1210   -3.1880    0.0000 H   0  0  0  0  0  0  0  0  0  0  0  0
    6.2030   -1.6340    0.0000 H   0  0  0  0  0  0  0  0  0  0  0  0
    1.7340   -2.1620    0.0000 H   0  0  0  0  0  0  0  0  0  0  0  0
    4.1050    3.3500    0.0000 H   0  0  0  0  0  0  0  0  0  0  0  0
   -3.2910   -3.1590    0.0000 H   0  0  0  0  0  0  0  0  0  0  0  0
   -6.0470   -1.9740    0.0000 H   0  0  0  0  0  0  0  0  0  0  0  0
   -6.3980    1.0060    0.0000 H   0  0  0  0  0  0  0  0  0  0  0  0
   -3.9940    2.8000    0.0000 H   0  0  0  0  0  0  0  0  0  0  0  0
   -0.7840    2.8160    0.0000 H   0  0  0  0  0  0  0  0  0  0  0  0
  1  2  1  0  0  0  0
  1 18  1  0  0  0  0
  1 19  1  0  0  0  0
  2  3  2  0  0  0  0
  2  7  1  0  0  0  0
  3  4  1  0  0  0  0
  3 20  1  0  0  0  0
  4  5  2  0  0  0  0
  4  9  1  0  0  0  0
  5  6  1  0  0  0  0
  6  7  1  0  0  0  0
  6 21  1  0  0  0  0
  7  8  2  0  0  0  0
  9 10  2  0  0  0  0
  9 17  1  0  0  0  0
 10 11  1  0  0  0  0
 11 12  2  0  0  0  0
 11 16  1  0  0  0  0
 12 13  1  0  0  0  0
 12 22  1  0  0  0  0
 13 14  2  0  0  0  0
 13 23  1  0  0  0  0
 14 15  1  0  0  0  0
 14 24  1  0  0  0  0
 15 16  2  0  0  0  0
 15 25  1  0  0  0  0
 16 17  1  0  0  0  0
 17 26  1  0  0  0  0
M  END
$$$$
