2D_structures\o73_MMV1578884_2D.pdb
 OpenBabel02272422463D

 46 49  0  0  1  0  0  0  0  0999 V2000
   -3.7900   -4.4000    0.0000 Br  0  0  0  0  0  0  0  0  0  0  0  0
   -4.4920   -3.0750    0.0000 C   0  0  0  0  0  0  0  0  0  0  0  0
   -5.9910   -3.0200    0.0000 C   0  0  0  0  0  0  0  0  0  0  0  0
   -6.6930   -1.6940    0.0000 C   0  0  0  0  0  0  0  0  0  0  0  0
   -8.1920   -1.6390    0.0000 Br  0  0  0  0  0  0  0  0  0  0  0  0
   -5.8960   -0.4230    0.0000 C   0  0  0  0  0  0  0  0  0  0  0  0
   -6.5990    0.9020    0.0000 O   0  0  0  0  0  0  0  0  0  0  0  0
   -5.8020    2.1730    0.0000 C   0  0  0  0  0  0  0  0  0  0  0  0
   -4.3030    2.1180    0.0000 C   0  0  0  0  0  0  0  0  0  0  0  0
   -3.6010    0.7930    0.0000 C   0  0  1  0  0  0  0  0  0  0  0  0
   -2.4870   -0.2130    0.0000 N   0  0  0  0  0  0  0  0  0  0  0  0
   -1.0600    0.2480    0.0000 C   0  0  0  0  0  0  0  0  0  0  0  0
    0.3670    0.7100    0.0000 C   0  0  0  0  0  0  0  0  0  0  0  0
    1.7950    1.1710    0.0000 C   0  0  0  0  0  0  0  0  0  0  0  0
    3.2220    1.6320    0.0000 N   0  0  0  0  0  0  0  0  0  0  0  0
    4.3350    0.6270    0.0000 C   0  0  0  0  0  0  0  0  0  0  0  0
    4.0210   -0.8400    0.0000 C   0  0  0  0  0  0  0  0  0  0  0  0
    5.1340   -1.8460    0.0000 C   0  0  0  0  0  0  0  0  0  0  0  0
    4.8200   -3.3120    0.0000 O   0  0  0  0  0  0  0  0  0  0  0  0
    6.5610   -1.3840    0.0000 C   0  0  0  0  0  0  0  0  0  0  0  0
    7.8590   -2.1370    0.0000 S   0  0  0  0  0  0  0  0  0  0  0  0
    8.9750   -1.1350    0.0000 C   0  0  0  0  0  0  0  0  0  0  0  0
    8.3670    0.2370    0.0000 C   0  0  0  0  0  0  0  0  0  0  0  0
    6.8750    0.0820    0.0000 C   0  0  0  0  0  0  0  0  0  0  0  0
    5.7620    1.0880    0.0000 N   0  0  0  0  0  0  0  0  0  0  0  0
   -4.3970   -0.4780    0.0000 C   0  0  0  0  0  0  0  0  0  0  0  0
   -3.6950   -1.8040    0.0000 C   0  0  0  0  0  0  0  0  0  0  0  0
   -6.7880   -4.2910    0.0000 H   0  0  0  0  0  0  0  0  0  0  0  0
   -5.4870    3.6400    0.0000 H   0  0  0  0  0  0  0  0  0  0  0  0
   -7.1910    2.7370    0.0000 H   0  0  0  0  0  0  0  0  0  0  0  0
   -3.1460    2.4920    0.0000 H   0  0  0  0  0  0  0  0  0  0  0  0
   -4.5090    3.6040    0.0000 H   0  0  0  0  0  0  0  0  0  0  0  0
   -2.7400    1.6500    0.0000 H   0  0  0  0  0  0  0  0  0  0  0  0
   -2.5580   -1.0070    0.0000 H   0  0  0  0  0  0  0  0  0  0  0  0
   -0.5990   -1.1790    0.0000 H   0  0  0  0  0  0  0  0  0  0  0  0
   -1.3440    1.7210    0.0000 H   0  0  0  0  0  0  0  0  0  0  0  0
    0.8280   -0.7180    0.0000 H   0  0  0  0  0  0  0  0  0  0  0  0
   -0.0940    2.1370    0.0000 H   0  0  0  0  0  0  0  0  0  0  0  0
    1.3330    2.5980    0.0000 H   0  0  0  0  0  0  0  0  0  0  0  0
    2.2560   -0.2570    0.0000 H   0  0  0  0  0  0  0  0  0  0  0  0
    3.5360    3.0990    0.0000 H   0  0  0  0  0  0  0  0  0  0  0  0
    2.5930   -1.3010    0.0000 H   0  0  0  0  0  0  0  0  0  0  0  0
   10.4420   -1.4490    0.0000 H   0  0  0  0  0  0  0  0  0  0  0  0
    9.1200    1.5340    0.0000 H   0  0  0  0  0  0  0  0  0  0  0  0
    6.0770    2.5540    0.0000 H   0  0  0  0  0  0  0  0  0  0  0  0
   -2.8210   -1.9440    0.0000 H   0  0  0  0  0  0  0  0  0  0  0  0
  1  2  1  0  0  0  0
  2  3  2  0  0  0  0
  2 27  1  0  0  0  0
  3  4  1  0  0  0  0
  3 28  1  0  0  0  0
  4  5  1  0  0  0  0
  4  6  2  0  0  0  0
  6  7  1  0  0  0  0
  6 26  1  0  0  0  0
  7  8  1  0  0  0  0
  8  9  1  0  0  0  0
  8 29  1  0  0  0  0
  8 30  1  0  0  0  0
  9 10  1  0  0  0  0
  9 31  1  0  0  0  0
  9 32  1  0  0  0  0
 10 11  1  0  0  0  0
 10 26  1  0  0  0  0
 10 33  1  6  0  0  0
 11 12  1  0  0  0  0
 11 34  1  0  0  0  0
 12 13  1  0  0  0  0
 12 35  1  0  0  0  0
 12 36  1  0  0  0  0
 13 14  1  0  0  0  0
 13 37  1  0  0  0  0
 13 38  1  0  0  0  0
 14 15  1  0  0  0  0
 14 39  1  0  0  0  0
 14 40  1  0  0  0  0
 15 16  1  0  0  0  0
 15 41  1  0  0  0  0
 16 17  2  0  0  0  0
 16 25  1  0  0  0  0
 17 18  1  0  0  0  0
 17 42  1  0  0  0  0
 18 19  2  0  0  0  0
 18 20  1  0  0  0  0
 20 21  1  0  0  0  0
 20 24  2  0  0  0  0
 21 22  1  0  0  0  0
 22 23  2  0  0  0  0
 22 43  1  0  0  0  0
 23 24  1  0  0  0  0
 23 44  1  0  0  0  0
 24 25  1  0  0  0  0
 25 45  1  0  0  0  0
 26 27  2  0  0  0  0
 27 46  1  0  0  0  0
M  END
$$$$
