2D_structures\o74_MMV108465_2D.pdb
 OpenBabel02272422463D

 35 37  0  0  0  0  0  0  0  0999 V2000
   -5.2070   -1.2390    0.0000 C   0  0  0  0  0  0  0  0  0  0  0  0
   -4.4870    0.0770    0.0000 C   0  0  0  0  0  0  0  0  0  0  0  0
   -3.7680    1.3940    0.0000 C   0  0  0  0  0  0  0  0  0  0  0  0
   -3.1710   -0.6420    0.0000 N   0  0  0  0  0  0  0  0  0  0  0  0
   -1.8900    0.1380    0.0000 C   0  0  0  0  0  0  0  0  0  0  0  0
   -1.9250    1.6370    0.0000 N   0  0  0  0  0  4  0  0  0  0  0  0
   -0.6440    2.4170    0.0000 C   0  0  0  0  0  0  0  0  0  0  0  0
    0.6720    1.6980    0.0000 N   0  0  0  0  0  0  0  0  0  0  0  0
    0.7070    0.1980    0.0000 C   0  0  0  0  0  0  0  0  0  0  0  0
   -0.5740   -0.5820    0.0000 C   0  0  0  0  0  0  0  0  0  0  0  0
   -0.2280   -2.0410    0.0000 C   0  0  0  0  0  0  0  0  0  0  0  0
    1.2670   -2.1640    0.0000 N   0  0  0  0  0  0  0  0  0  0  0  0
    1.8450   -0.7790    0.0000 N   0  0  0  0  0  0  0  0  0  0  0  0
    3.3050   -0.4340    0.0000 C   0  0  0  0  0  0  0  0  0  0  0  0
    4.3340   -1.5250    0.0000 C   0  0  0  0  0  0  0  0  0  0  0  0
    5.7930   -1.1790    0.0000 C   0  0  0  0  0  0  0  0  0  0  0  0
    6.2240    0.2580    0.0000 C   0  0  0  0  0  0  0  0  0  0  0  0
    7.6830    0.6040    0.0000 Cl  0  0  0  0  0  0  0  0  0  0  0  0
    5.1940    1.3490    0.0000 C   0  0  0  0  0  0  0  0  0  0  0  0
    3.7350    1.0030    0.0000 C   0  0  0  0  0  0  0  0  0  0  0  0
   -5.9270   -2.5550    0.0000 H   0  0  0  0  0  0  0  0  0  0  0  0
   -3.9890   -2.1130    0.0000 H   0  0  0  0  0  0  0  0  0  0  0  0
   -6.5230   -0.5190    0.0000 H   0  0  0  0  0  0  0  0  0  0  0  0
   -5.8040    0.7970    0.0000 H   0  0  0  0  0  0  0  0  0  0  0  0
   -3.0480    2.7100    0.0000 H   0  0  0  0  0  0  0  0  0  0  0  0
   -5.0840    2.1130    0.0000 H   0  0  0  0  0  0  0  0  0  0  0  0
   -2.7100    1.1170    0.0000 H   0  0  0  0  0  0  0  0  0  0  0  0
   -2.9540   -2.1260    0.0000 H   0  0  0  0  0  0  0  0  0  0  0  0
   -0.6780    3.9170    0.0000 H   0  0  0  0  0  0  0  0  0  0  0  0
   -1.2060   -3.1790    0.0000 H   0  0  0  0  0  0  0  0  0  0  0  0
    3.9040   -2.9620    0.0000 H   0  0  0  0  0  0  0  0  0  0  0  0
    6.8230   -2.2700    0.0000 H   0  0  0  0  0  0  0  0  0  0  0  0
    5.6250    2.7860    0.0000 H   0  0  0  0  0  0  0  0  0  0  0  0
    2.7060    2.0940    0.0000 H   0  0  0  0  0  0  0  0  0  0  0  0
    1.5128    2.2101    0.0000 H   0  0  0  0  0  0  0  0  0  0  0  0
  1  2  1  0  0  0  0
  1 21  1  0  0  0  0
  1 22  1  0  0  0  0
  1 23  1  0  0  0  0
  2  3  1  0  0  0  0
  2  4  1  0  0  0  0
  2 24  1  0  0  0  0
  3 25  1  0  0  0  0
  3 26  1  0  0  0  0
  3 27  1  0  0  0  0
  4  5  1  0  0  0  0
  4 28  1  0  0  0  0
  5  6  2  0  0  0  0
  5 10  1  0  0  0  0
  6  7  2  0  0  0  0
  7  8  1  0  0  0  0
  7 29  1  0  0  0  0
  8  9  1  0  0  0  0
  8 35  1  0  0  0  0
  9 10  2  0  0  0  0
  9 13  1  0  0  0  0
 10 11  1  0  0  0  0
 11 12  2  0  0  0  0
 11 30  1  0  0  0  0
 12 13  1  0  0  0  0
 13 14  1  0  0  0  0
 14 15  2  0  0  0  0
 14 20  1  0  0  0  0
 15 16  1  0  0  0  0
 15 31  1  0  0  0  0
 16 17  2  0  0  0  0
 16 32  1  0  0  0  0
 17 18  1  0  0  0  0
 17 19  1  0  0  0  0
 19 20  2  0  0  0  0
 19 33  1  0  0  0  0
 20 34  1  0  0  0  0
M  END
$$$$
