2D_structures\o75_MMV1480967_2D.pdb
 OpenBabel02272422463D

 32 34  0  0  0  0  0  0  0  0999 V2000
   -4.1000   -0.0540    0.0000 C   0  0  0  0  0  0  0  0  0  0  0  0
   -2.6190   -0.2930    0.0000 O   0  0  0  0  0  0  0  0  0  0  0  0
   -1.6720    0.8700    0.0000 C   0  0  0  0  0  0  0  0  0  0  0  0
   -2.2060    2.2720    0.0000 C   0  0  0  0  0  0  0  0  0  0  0  0
   -3.6870    2.5110    0.0000 F   0  0  0  0  0  0  0  0  0  0  0  0
   -1.2590    3.4350    0.0000 C   0  0  0  0  0  0  0  0  0  0  0  0
   -1.7930    4.8370    0.0000 F   0  0  0  0  0  0  0  0  0  0  0  0
    0.2220    3.1970    0.0000 C   0  0  0  0  0  0  0  0  0  0  0  0
    0.7550    1.7950    0.0000 C   0  0  0  0  0  0  0  0  0  0  0  0
    2.2360    1.5570    0.0000 C   0  0  0  0  0  0  0  0  0  0  0  0
    3.1830    2.7200    0.0000 O   0  0  0  0  0  0  0  0  0  0  0  0
    2.7700    0.1550    0.0000 C   0  0  0  0  0  0  0  0  0  0  0  0
    1.8230   -1.0080    0.0000 C   0  0  0  0  0  0  0  0  0  0  0  0
    0.3420   -0.7700    0.0000 N   0  0  0  0  0  0  0  0  0  0  0  0
   -0.6050   -1.9330    0.0000 C   0  0  0  0  0  0  0  0  0  0  0  0
   -1.0970   -3.3500    0.0000 C   0  0  0  0  0  0  0  0  0  0  0  0
    0.3760   -3.0680    0.0000 C   0  0  0  0  0  0  0  0  0  0  0  0
   -0.1920    0.6320    0.0000 C   0  0  0  0  0  0  0  0  0  0  0  0
    4.2510   -0.0840    0.0000 C   0  0  0  0  0  0  0  0  0  0  0  0
    4.7850   -1.4850    0.0000 O   0  0  0  0  0  0  0  0  0  0  0  0
    5.1980    1.0800    0.0000 O   0  0  0  0  0  0  0  0  0  0  0  0
   -5.5810    0.1840    0.0000 H   0  0  0  0  0  0  0  0  0  0  0  0
   -4.3390   -1.5350    0.0000 H   0  0  0  0  0  0  0  0  0  0  0  0
   -3.8620    1.4270    0.0000 H   0  0  0  0  0  0  0  0  0  0  0  0
    1.1690    4.3600    0.0000 H   0  0  0  0  0  0  0  0  0  0  0  0
    2.3910   -2.0830    0.0000 H   0  0  0  0  0  0  0  0  0  0  0  0
   -1.9150   -1.2020    0.0000 H   0  0  0  0  0  0  0  0  0  0  0  0
   -2.5780   -3.1120    0.0000 H   0  0  0  0  0  0  0  0  0  0  0  0
   -1.0740   -4.8500    0.0000 H   0  0  0  0  0  0  0  0  0  0  0  0
    0.9100   -4.4690    0.0000 H   0  0  0  0  0  0  0  0  0  0  0  0
    1.4880   -2.5760    0.0000 H   0  0  0  0  0  0  0  0  0  0  0  0
    6.6790    0.8410    0.0000 H   0  0  0  0  0  0  0  0  0  0  0  0
  1  2  1  0  0  0  0
  1 22  1  0  0  0  0
  1 23  1  0  0  0  0
  1 24  1  0  0  0  0
  2  3  1  0  0  0  0
  3  4  2  0  0  0  0
  3 18  1  0  0  0  0
  4  5  1  0  0  0  0
  4  6  1  0  0  0  0
  6  7  1  0  0  0  0
  6  8  2  0  0  0  0
  8  9  1  0  0  0  0
  8 25  1  0  0  0  0
  9 10  1  0  0  0  0
  9 18  2  0  0  0  0
 10 11  2  0  0  0  0
 10 12  1  0  0  0  0
 12 13  2  0  0  0  0
 12 19  1  0  0  0  0
 13 14  1  0  0  0  0
 13 26  1  0  0  0  0
 14 15  1  0  0  0  0
 14 18  1  0  0  0  0
 15 16  1  0  0  0  0
 15 17  1  0  0  0  0
 15 27  1  0  0  0  0
 16 17  1  0  0  0  0
 16 28  1  0  0  0  0
 16 29  1  0  0  0  0
 17 30  1  0  0  0  0
 17 31  1  0  0  0  0
 19 20  2  0  0  0  0
 19 21  1  0  0  0  0
 21 32  1  0  0  0  0
M  END
$$$$
