2D_structures\o79_MMV1782403_2D.pdb
 OpenBabel02272422463D

 50 53  0  0  0  0  0  0  0  0999 V2000
   -8.9490   -0.9110    0.0000 C   0  0  0  0  0  0  0  0  0  0  0  0
   -7.5500   -1.4510    0.0000 C   0  0  0  0  0  0  0  0  0  0  0  0
   -6.1500   -1.9920    0.0000 N   0  0  0  0  0  0  0  0  0  0  0  0
   -4.9830   -1.0500    0.0000 C   0  0  0  0  0  0  0  0  0  0  0  0
   -5.2140    0.4320    0.0000 O   0  0  0  0  0  0  0  0  0  0  0  0
   -3.5830   -1.5910    0.0000 N   0  0  0  0  0  0  0  0  0  0  0  0
   -2.4160   -0.6490    0.0000 C   0  0  0  0  0  0  0  0  0  0  0  0
   -0.9680   -1.0400    0.0000 C   0  0  0  0  0  0  0  0  0  0  0  0
   -0.1480    0.2160    0.0000 N   0  0  0  0  0  0  0  0  0  0  0  0
    1.3340    0.4480    0.0000 C   0  0  0  0  0  0  0  0  0  0  0  0
    1.8740    1.8470    0.0000 C   0  0  0  0  0  0  0  0  0  0  0  0
    0.9330    3.0150    0.0000 C   0  0  0  0  0  0  0  0  0  0  0  0
   -0.5490    2.7830    0.0000 C   0  0  0  0  0  0  0  0  0  0  0  0
   -1.0900    1.3840    0.0000 C   0  0  0  0  0  0  0  0  0  0  0  0
   -2.4910    0.8490    0.0000 N   0  0  0  0  0  0  0  0  0  0  0  0
    1.4730    4.4140    0.0000 C   0  0  0  0  0  0  0  0  0  0  0  0
    2.9550    4.6460    0.0000 C   0  0  0  0  0  0  0  0  0  0  0  0
    3.4960    6.0450    0.0000 C   0  0  0  0  0  0  0  0  0  0  0  0
    2.5540    7.2130    0.0000 C   0  0  0  0  0  0  0  0  0  0  0  0
    1.0720    6.9810    0.0000 N   0  0  0  0  0  0  0  0  0  0  0  0
    0.5320    5.5820    0.0000 C   0  0  0  0  0  0  0  0  0  0  0  0
    2.2760   -0.7200    0.0000 C   0  0  0  0  0  0  0  0  0  0  0  0
    1.7350   -2.1190    0.0000 N   0  0  0  0  0  0  0  0  0  0  0  0
    2.6770   -3.2870    0.0000 C   0  0  0  0  0  0  0  0  0  0  0  0
    4.1590   -3.0550    0.0000 C   0  0  0  0  0  0  0  0  0  0  0  0
    5.1000   -4.2230    0.0000 C   0  0  0  0  0  0  0  0  0  0  0  0
    6.0420   -5.3900    0.0000 C   0  0  0  0  0  0  0  0  0  0  0  0
    4.6990   -1.6560    0.0000 C   0  0  0  0  0  0  0  0  0  0  0  0
    3.7580   -0.4880    0.0000 N   0  0  0  0  0  0  0  0  0  0  0  0
  -10.3480   -0.3700    0.0000 H   0  0  0  0  0  0  0  0  0  0  0  0
   -8.4080    0.4880    0.0000 H   0  0  0  0  0  0  0  0  0  0  0  0
   -9.4890   -2.3100    0.0000 H   0  0  0  0  0  0  0  0  0  0  0  0
   -7.0090   -0.0520    0.0000 H   0  0  0  0  0  0  0  0  0  0  0  0
   -8.0900   -2.8510    0.0000 H   0  0  0  0  0  0  0  0  0  0  0  0
   -5.9190   -3.4740    0.0000 H   0  0  0  0  0  0  0  0  0  0  0  0
   -3.3520   -3.0730    0.0000 H   0  0  0  0  0  0  0  0  0  0  0  0
   -0.4330   -2.4420    0.0000 H   0  0  0  0  0  0  0  0  0  0  0  0
    3.3560    2.0790    0.0000 H   0  0  0  0  0  0  0  0  0  0  0  0
   -1.4910    3.9510    0.0000 H   0  0  0  0  0  0  0  0  0  0  0  0
    3.8970    3.4780    0.0000 H   0  0  0  0  0  0  0  0  0  0  0  0
    4.9780    6.2760    0.0000 H   0  0  0  0  0  0  0  0  0  0  0  0
    3.0940    8.6120    0.0000 H   0  0  0  0  0  0  0  0  0  0  0  0
   -0.9500    5.3500    0.0000 H   0  0  0  0  0  0  0  0  0  0  0  0
    2.1360   -4.6860    0.0000 H   0  0  0  0  0  0  0  0  0  0  0  0
    6.2680   -3.2810    0.0000 H   0  0  0  0  0  0  0  0  0  0  0  0
    3.9330   -5.1640    0.0000 H   0  0  0  0  0  0  0  0  0  0  0  0
    6.9840   -6.5580    0.0000 H   0  0  0  0  0  0  0  0  0  0  0  0
    4.8740   -6.3320    0.0000 H   0  0  0  0  0  0  0  0  0  0  0  0
    7.2100   -4.4490    0.0000 H   0  0  0  0  0  0  0  0  0  0  0  0
    6.1810   -1.4240    0.0000 H   0  0  0  0  0  0  0  0  0  0  0  0
  1  2  1  0  0  0  0
  1 30  1  0  0  0  0
  1 31  1  0  0  0  0
  1 32  1  0  0  0  0
  2  3  1  0  0  0  0
  2 33  1  0  0  0  0
  2 34  1  0  0  0  0
  3  4  1  0  0  0  0
  3 35  1  0  0  0  0
  4  5  2  0  0  0  0
  4  6  1  0  0  0  0
  6  7  1  0  0  0  0
  6 36  1  0  0  0  0
  7  8  2  0  0  0  0
  7 15  1  0  0  0  0
  8  9  1  0  0  0  0
  8 37  1  0  0  0  0
  9 10  1  0  0  0  0
  9 14  1  0  0  0  0
 10 11  2  0  0  0  0
 10 22  1  0  0  0  0
 11 12  1  0  0  0  0
 11 38  1  0  0  0  0
 12 13  2  0  0  0  0
 12 16  1  0  0  0  0
 13 14  1  0  0  0  0
 13 39  1  0  0  0  0
 14 15  2  0  0  0  0
 16 17  2  0  0  0  0
 16 21  1  0  0  0  0
 17 18  1  0  0  0  0
 17 40  1  0  0  0  0
 18 19  2  0  0  0  0
 18 41  1  0  0  0  0
 19 20  1  0  0  0  0
 19 42  1  0  0  0  0
 20 21  2  0  0  0  0
 21 43  1  0  0  0  0
 22 23  2  0  0  0  0
 22 29  1  0  0  0  0
 23 24  1  0  0  0  0
 24 25  2  0  0  0  0
 24 44  1  0  0  0  0
 25 26  1  0  0  0  0
 25 28  1  0  0  0  0
 26 27  1  0  0  0  0
 26 45  1  0  0  0  0
 26 46  1  0  0  0  0
 27 47  1  0  0  0  0
 27 48  1  0  0  0  0
 27 49  1  0  0  0  0
 28 29  2  0  0  0  0
 28 50  1  0  0  0  0
M  END
$$$$
