2D_structures\o80_MMV1782402_2D.pdb
 OpenBabel02272422463D

 43 45  0  0  0  0  0  0  0  0999 V2000
    7.5320    2.1040    0.0000 C   0  0  0  0  0  0  0  0  0  0  0  0
    6.3330    1.2030    0.0000 C   0  0  0  0  0  0  0  0  0  0  0  0
    6.5150   -0.2860    0.0000 C   0  0  0  0  0  0  0  0  0  0  0  0
    5.3160   -1.1880    0.0000 C   0  0  0  0  0  0  0  0  0  0  0  0
    5.4970   -2.6770    0.0000 C   0  0  0  0  0  0  0  0  0  0  0  0
    3.9360   -0.6000    0.0000 N   0  0  0  0  0  0  0  0  0  0  0  0
    2.5760   -1.2330    0.0000 N   0  0  0  0  0  0  0  0  0  0  0  0
    1.5540   -0.1350    0.0000 C   0  0  0  0  0  0  0  0  0  0  0  0
    2.2820    1.1770    0.0000 N   0  0  0  0  0  0  0  0  0  0  0  0
    3.7540    0.8890    0.0000 C   0  0  0  0  0  0  0  0  0  0  0  0
    4.9530    1.7900    0.0000 N   0  0  0  0  0  0  0  0  0  0  0  0
    0.0650   -0.3160    0.0000 C   0  0  0  0  0  0  0  0  0  0  0  0
   -0.5230   -1.6960    0.0000 O   0  0  0  0  0  0  0  0  0  0  0  0
   -0.8370    0.8830    0.0000 N   0  0  0  0  0  0  0  0  0  0  0  0
   -2.3260    0.7020    0.0000 S   0  0  0  0  0  0  0  0  0  0  0  0
   -2.1450   -0.7870    0.0000 O   0  0  0  0  0  0  0  0  0  0  0  0
   -2.3250    1.9170    0.0000 O   0  0  0  0  0  0  0  0  0  0  0  0
   -3.8150    0.5210    0.0000 C   0  0  0  0  0  0  0  0  0  0  0  0
   -4.7160    1.7190    0.0000 C   0  0  0  0  0  0  0  0  0  0  0  0
   -4.1290    3.1000    0.0000 C   0  0  0  0  0  0  0  0  0  0  0  0
   -6.2050    1.5380    0.0000 C   0  0  0  0  0  0  0  0  0  0  0  0
   -6.7930    0.1580    0.0000 C   0  0  0  0  0  0  0  0  0  0  0  0
   -5.8910   -1.0410    0.0000 C   0  0  0  0  0  0  0  0  0  0  0  0
   -4.4020   -0.8600    0.0000 C   0  0  0  0  0  0  0  0  0  0  0  0
   -3.5010   -2.0580    0.0000 O   0  0  0  0  0  0  0  0  0  0  0  0
   -4.0880   -3.4390    0.0000 C   0  0  0  0  0  0  0  0  0  0  0  0
   -4.6760   -4.8190    0.0000 F   0  0  0  0  0  0  0  0  0  0  0  0
   -2.7080   -4.0260    0.0000 F   0  0  0  0  0  0  0  0  0  0  0  0
   -5.4690   -2.8510    0.0000 F   0  0  0  0  0  0  0  0  0  0  0  0
    8.7310    3.0060    0.0000 H   0  0  0  0  0  0  0  0  0  0  0  0
    8.4340    0.9060    0.0000 H   0  0  0  0  0  0  0  0  0  0  0  0
    6.6310    3.3030    0.0000 H   0  0  0  0  0  0  0  0  0  0  0  0
    7.8950   -0.8740    0.0000 H   0  0  0  0  0  0  0  0  0  0  0  0
    5.6780   -4.1660    0.0000 H   0  0  0  0  0  0  0  0  0  0  0  0
    4.0080   -2.8580    0.0000 H   0  0  0  0  0  0  0  0  0  0  0  0
    6.9860   -2.4950    0.0000 H   0  0  0  0  0  0  0  0  0  0  0  0
   -0.2490    2.2630    0.0000 H   0  0  0  0  0  0  0  0  0  0  0  0
   -3.5410    4.4800    0.0000 H   0  0  0  0  0  0  0  0  0  0  0  0
   -2.9610    2.7640    0.0000 H   0  0  0  0  0  0  0  0  0  0  0  0
   -5.5090    3.6870    0.0000 H   0  0  0  0  0  0  0  0  0  0  0  0
   -7.1070    2.7370    0.0000 H   0  0  0  0  0  0  0  0  0  0  0  0
   -8.2820   -0.0230    0.0000 H   0  0  0  0  0  0  0  0  0  0  0  0
   -6.4790   -2.4210    0.0000 H   0  0  0  0  0  0  0  0  0  0  0  0
  1  2  1  0  0  0  0
  1 30  1  0  0  0  0
  1 31  1  0  0  0  0
  1 32  1  0  0  0  0
  2  3  1  0  0  0  0
  2 11  2  0  0  0  0
  3  4  2  0  0  0  0
  3 33  1  0  0  0  0
  4  5  1  0  0  0  0
  4  6  1  0  0  0  0
  5 34  1  0  0  0  0
  5 35  1  0  0  0  0
  5 36  1  0  0  0  0
  6  7  1  0  0  0  0
  6 10  1  0  0  0  0
  7  8  2  0  0  0  0
  8  9  1  0  0  0  0
  8 12  1  0  0  0  0
  9 10  2  0  0  0  0
 10 11  1  0  0  0  0
 12 13  2  0  0  0  0
 12 14  1  0  0  0  0
 14 15  1  0  0  0  0
 14 37  1  0  0  0  0
 15 16  2  0  0  0  0
 15 17  2  0  0  0  0
 15 18  1  0  0  0  0
 18 19  2  0  0  0  0
 18 24  1  0  0  0  0
 19 20  1  0  0  0  0
 19 21  1  0  0  0  0
 20 38  1  0  0  0  0
 20 39  1  0  0  0  0
 20 40  1  0  0  0  0
 21 22  2  0  0  0  0
 21 41  1  0  0  0  0
 22 23  1  0  0  0  0
 22 42  1  0  0  0  0
 23 24  2  0  0  0  0
 23 43  1  0  0  0  0
 24 25  1  0  0  0  0
 25 26  1  0  0  0  0
 26 27  1  0  0  0  0
 26 28  1  0  0  0  0
 26 29  1  0  0  0  0
M  END
$$$$
