2D_structures\o8_MMV689758_2D.pdb
 OpenBabel02272422463D

 68 72  0  0  1  0  0  0  0  0999 V2000
    1.5020    5.6190    0.0000 C   0  0  0  0  0  0  0  0  0  0  0  0
    0.9010    4.2450    0.0000 O   0  0  0  0  0  0  0  0  0  0  0  0
    1.7900    3.0370    0.0000 C   0  0  0  0  0  0  0  0  0  0  0  0
    3.2810    3.2040    0.0000 N   0  0  0  0  0  0  0  0  0  0  0  0
    4.1710    1.9960    0.0000 C   0  0  0  0  0  0  0  0  0  0  0  0
    5.6620    2.1630    0.0000 C   0  0  0  0  0  0  0  0  0  0  0  0
    6.5510    0.9550    0.0000 C   0  0  0  0  0  0  0  0  0  0  0  0
    5.9500   -0.4190    0.0000 C   0  0  0  0  0  0  0  0  0  0  0  0
    6.8400   -1.6270    0.0000 Br  0  0  0  0  0  0  0  0  0  0  0  0
    4.4600   -0.5860    0.0000 C   0  0  0  0  0  0  0  0  0  0  0  0
    3.5700    0.6220    0.0000 C   0  0  0  0  0  0  0  0  0  0  0  0
    2.0790    0.4550    0.0000 C   0  0  0  0  0  0  0  0  0  0  0  0
    1.1890    1.6630    0.0000 C   0  0  0  0  0  0  0  0  0  0  0  0
   -0.3010    1.4960    0.0000 C   0  0  1  0  0  0  0  0  0  0  0  0
   -1.7920    1.3300    0.0000 C   0  0  0  0  0  0  0  0  0  0  0  0
   -2.3930   -0.0450    0.0000 C   0  0  0  0  0  0  0  0  0  0  0  0
   -3.8840   -0.2110    0.0000 C   0  0  0  0  0  0  0  0  0  0  0  0
   -4.7730    0.9960    0.0000 C   0  0  0  0  0  0  0  0  0  0  0  0
   -4.1720    2.3710    0.0000 C   0  0  0  0  0  0  0  0  0  0  0  0
   -2.6820    2.5370    0.0000 C   0  0  0  0  0  0  0  0  0  0  0  0
   -0.1350    0.0060    0.0000 C   0  0  1  0  0  0  0  0  0  0  0  0
    1.3560    0.1720    0.0000 O   0  0  0  0  0  0  0  0  0  0  0  0
   -1.6250   -0.1610    0.0000 C   0  0  0  0  0  0  0  0  0  0  0  0
   -3.1160   -0.3280    0.0000 C   0  0  0  0  0  0  0  0  0  0  0  0
   -4.6070   -0.4940    0.0000 N   0  0  0  0  0  0  0  0  0  0  0  0
   -5.2080   -1.8690    0.0000 C   0  0  0  0  0  0  0  0  0  0  0  0
   -5.4960    0.7130    0.0000 C   0  0  0  0  0  0  0  0  0  0  0  0
    0.0320   -1.4850    0.0000 C   0  0  0  0  0  0  0  0  0  0  0  0
   -1.1760   -2.3750    0.0000 C   0  0  0  0  0  0  0  0  0  0  0  0
   -1.0090   -3.8660    0.0000 C   0  0  0  0  0  0  0  0  0  0  0  0
    0.3650   -4.4670    0.0000 C   0  0  0  0  0  0  0  0  0  0  0  0
    1.5730   -3.5770    0.0000 C   0  0  0  0  0  0  0  0  0  0  0  0
    2.9470   -4.1780    0.0000 C   0  0  0  0  0  0  0  0  0  0  0  0
    4.1550   -3.2880    0.0000 C   0  0  0  0  0  0  0  0  0  0  0  0
    3.9880   -1.7970    0.0000 C   0  0  0  0  0  0  0  0  0  0  0  0
    2.6140   -1.1960    0.0000 C   0  0  0  0  0  0  0  0  0  0  0  0
    1.4060   -2.0860    0.0000 C   0  0  0  0  0  0  0  0  0  0  0  0
    2.1030    6.9940    0.0000 H   0  0  0  0  0  0  0  0  0  0  0  0
    0.1270    6.2200    0.0000 H   0  0  0  0  0  0  0  0  0  0  0  0
    2.8760    5.0180    0.0000 H   0  0  0  0  0  0  0  0  0  0  0  0
    6.2630    3.5370    0.0000 H   0  0  0  0  0  0  0  0  0  0  0  0
    8.0420    1.1220    0.0000 H   0  0  0  0  0  0  0  0  0  0  0  0
    4.2090   -2.0650    0.0000 H   0  0  0  0  0  0  0  0  0  0  0  0
    1.6500   -0.9820    0.0000 H   0  0  0  0  0  0  0  0  0  0  0  0
   -0.4680    2.9870    0.0000 H   0  0  0  0  0  0  0  0  0  0  0  0
   -1.6570   -1.3520    0.0000 H   0  0  0  0  0  0  0  0  0  0  0  0
   -4.1340   -1.6900    0.0000 H   0  0  0  0  0  0  0  0  0  0  0  0
   -6.2600    1.1950    0.0000 H   0  0  0  0  0  0  0  0  0  0  0  0
   -5.0620    3.5780    0.0000 H   0  0  0  0  0  0  0  0  0  0  0  0
   -2.0810    3.9120    0.0000 H   0  0  0  0  0  0  0  0  0  0  0  0
    2.3860   -0.9180    0.0000 H   0  0  0  0  0  0  0  0  0  0  0  0
   -2.1480    1.2450    0.0000 H   0  0  0  0  0  0  0  0  0  0  0  0
   -1.6420   -1.6610    0.0000 H   0  0  0  0  0  0  0  0  0  0  0  0
   -3.2830    1.1630    0.0000 H   0  0  0  0  0  0  0  0  0  0  0  0
   -3.1320   -1.8280    0.0000 H   0  0  0  0  0  0  0  0  0  0  0  0
   -5.8090   -3.2430    0.0000 H   0  0  0  0  0  0  0  0  0  0  0  0
   -6.5820   -1.2680    0.0000 H   0  0  0  0  0  0  0  0  0  0  0  0
   -3.8330   -2.4700    0.0000 H   0  0  0  0  0  0  0  0  0  0  0  0
   -6.3860    1.9210    0.0000 H   0  0  0  0  0  0  0  0  0  0  0  0
   -6.7040   -0.1770    0.0000 H   0  0  0  0  0  0  0  0  0  0  0  0
   -4.8480    2.0660    0.0000 H   0  0  0  0  0  0  0  0  0  0  0  0
   -2.6130   -1.9460    0.0000 H   0  0  0  0  0  0  0  0  0  0  0  0
   -2.2170   -4.7550    0.0000 H   0  0  0  0  0  0  0  0  0  0  0  0
    0.5320   -5.9570    0.0000 H   0  0  0  0  0  0  0  0  0  0  0  0
    3.1140   -5.6690    0.0000 H   0  0  0  0  0  0  0  0  0  0  0  0
    5.5290   -3.8890    0.0000 H   0  0  0  0  0  0  0  0  0  0  0  0
    5.1960   -0.9080    0.0000 H   0  0  0  0  0  0  0  0  0  0  0  0
    2.8130    0.2900    0.0000 H   0  0  0  0  0  0  0  0  0  0  0  0
  1  2  1  0  0  0  0
  1 38  1  0  0  0  0
  1 39  1  0  0  0  0
  1 40  1  0  0  0  0
  2  3  1  0  0  0  0
  3  4  2  0  0  0  0
  3 13  1  0  0  0  0
  4  5  1  0  0  0  0
  5  6  2  0  0  0  0
  5 11  1  0  0  0  0
  6  7  1  0  0  0  0
  6 41  1  0  0  0  0
  7  8  2  0  0  0  0
  7 42  1  0  0  0  0
  8  9  1  0  0  0  0
  8 10  1  0  0  0  0
 10 11  2  0  0  0  0
 10 43  1  0  0  0  0
 11 12  1  0  0  0  0
 12 13  2  0  0  0  0
 12 44  1  0  0  0  0
 13 14  1  0  0  0  0
 14 15  1  0  0  0  0
 14 21  1  0  0  0  0
 14 45  1  1  0  0  0
 15 16  2  0  0  0  0
 15 20  1  0  0  0  0
 16 17  1  0  0  0  0
 16 46  1  0  0  0  0
 17 18  2  0  0  0  0
 17 47  1  0  0  0  0
 18 19  1  0  0  0  0
 18 48  1  0  0  0  0
 19 20  2  0  0  0  0
 19 49  1  0  0  0  0
 20 50  1  0  0  0  0
 21 22  1  1  0  0  0
 21 23  1  0  0  0  0
 21 28  1  0  0  0  0
 22 51  1  0  0  0  0
 23 24  1  0  0  0  0
 23 52  1  0  0  0  0
 23 53  1  0  0  0  0
 24 25  1  0  0  0  0
 24 54  1  0  0  0  0
 24 55  1  0  0  0  0
 25 26  1  0  0  0  0
 25 27  1  0  0  0  0
 26 56  1  0  0  0  0
 26 57  1  0  0  0  0
 26 58  1  0  0  0  0
 27 59  1  0  0  0  0
 27 60  1  0  0  0  0
 27 61  1  0  0  0  0
 28 29  2  0  0  0  0
 28 37  1  0  0  0  0
 29 30  1  0  0  0  0
 29 62  1  0  0  0  0
 30 31  2  0  0  0  0
 30 63  1  0  0  0  0
 31 32  1  0  0  0  0
 31 64  1  0  0  0  0
 32 33  2  0  0  0  0
 32 37  1  0  0  0  0
 33 34  1  0  0  0  0
 33 65  1  0  0  0  0
 34 35  2  0  0  0  0
 34 66  1  0  0  0  0
 35 36  1  0  0  0  0
 35 67  1  0  0  0  0
 36 37  2  0  0  0  0
 36 68  1  0  0  0  0
M  END
$$$$
