REMARK  Name = ./3D_structures\o11_MMV1581034_3D.pdb
REMARK  6 active torsions:
REMARK  status: ('A' for Active; 'I' for Inactive)
REMARK    1  A    between atoms: C2_3  and  S1_4
REMARK    2  A    between atoms: S1_4  and  C3_7
REMARK    3  A    between atoms: C8_13  and  O4_29
REMARK    4  A    between atoms: C9_14  and  N2_15
REMARK    5  A    between atoms: N3_18  and  C11_19
REMARK    6  A    between atoms: C12_20  and  C17_26
REMARK                            x       y       z     vdW  Elec       q    Type
REMARK                         _______ _______ _______ _____ _____    ______ ____
ROOT
ATOM      1 CL1  UNL     1      -3.333   2.492   3.062  0.00  0.00    +0.000 Cl
ATOM      2  C1  UNL     1      -1.914   1.714   2.366  0.00  0.00    +0.000 A 
ATOM      3  C2  UNL     1      -2.042   0.413   1.941  0.00  0.00    +0.000 A 
ATOM      4  C8  UNL     1      -0.923  -0.201   1.393  0.00  0.00    +0.000 A 
ATOM      5  C9  UNL     1       0.310   0.460   1.264  0.00  0.00    +0.000 A 
ATOM      6  C18 UNL     1       0.391   1.756   1.701  0.00  0.00    +0.000 A 
ATOM      7  C19 UNL     1      -0.723   2.395   2.257  0.00  0.00    +0.000 A 
ENDROOT
BRANCH   5   8
ATOM      8  N2  UNL     1       1.384  -0.238   0.698  0.00  0.00    +0.000 N 
ATOM      9  C10 UNL     1       2.708   0.232   0.476  0.00  0.00    +0.000 C 
ATOM     10  O3  UNL     1       2.958   1.402   0.820  0.00  0.00    +0.000 OA
ATOM     11  N3  UNL     1       3.698  -0.596  -0.111  0.00  0.00    +0.000 N 
ATOM     12  H11 UNL     1       1.248  -1.247   0.379  0.00  0.00    +0.000 HD
ATOM     13  H12 UNL     1       3.413  -1.585  -0.380  0.00  0.00    +0.000 HD
BRANCH  11  14
ATOM     14  C11 UNL     1       5.021  -0.173  -0.350  0.00  0.00    +0.000 A 
ATOM     15  C12 UNL     1       5.905  -1.110  -0.940  0.00  0.00    +0.000 A 
ATOM     16  C13 UNL     1       7.210  -0.842  -1.230  0.00  0.00    +0.000 A 
ATOM     17  C14 UNL     1       7.710   0.393  -0.942  0.00  0.00    +0.000 A 
ATOM     18  C15 UNL     1       6.881   1.314  -0.373  0.00  0.00    +0.000 A 
ATOM     19  C16 UNL     1       5.549   1.040  -0.077  0.00  0.00    +0.000 A 
ATOM     20  F1  UNL     1       8.004  -1.796  -1.800  0.00  0.00    +0.000 F 
ATOM     21  C17 UNL     1       5.387  -2.476  -1.269  0.00  0.00    +0.000 C 
ENDBRANCH  11  14
ENDBRANCH   5   8
BRANCH   3  22
ATOM     22  S1  UNL     1      -3.535  -0.470   2.069  0.00  0.00    +0.000 S 
ATOM     23  O1  UNL     1      -4.321  -0.046   3.278  0.00  0.00    +0.000 OA
ATOM     24  O2  UNL     1      -3.272  -1.959   2.242  0.00  0.00    +0.000 OA
BRANCH  22  25
ATOM     25  C3  UNL     1      -4.565  -0.291   0.651  0.00  0.00    +0.000 C 
ATOM     26  C4  UNL     1      -3.953  -0.849  -0.606  0.00  0.00    +0.000 C 
ATOM     27  N1  UNL     1      -5.026  -1.049  -1.573  0.00  0.00    +0.000 NA
ATOM     28  C5  UNL     1      -6.201  -0.284  -1.288  0.00  0.00    +0.000 C 
ATOM     29  C6  UNL     1      -5.881   1.127  -0.828  0.00  0.00    +0.000 C 
ATOM     30  C7  UNL     1      -4.986   1.118   0.393  0.00  0.00    +0.000 C 
ATOM     31  H4  UNL     1      -5.254  -2.069  -1.553  0.00  0.00    +0.000 HD
ENDBRANCH  22  25
ENDBRANCH   3  22
BRANCH   4  32
ATOM     32  O4  UNL     1      -1.085  -1.479   0.987  0.00  0.00    +0.000 OA
ATOM     33  H21 UNL     1      -0.408  -2.054   0.582  0.00  0.00    +0.000 HD
ENDBRANCH   4  32
TORSDOF 5
