REMARK  Name = ./3D_structures\o19_MMV1580485_3D.pdb
REMARK  8 active torsions:
REMARK  status: ('A' for Active; 'I' for Inactive)
REMARK    1  A    between atoms: C2_3  and  O1_4
REMARK    2  A    between atoms: O1_4  and  C3_5
REMARK    3  A    between atoms: C3_5  and  C4_6
REMARK    4  A    between atoms: C7_9  and  C8_10
REMARK    5  A    between atoms: C8_10  and  O2_11
REMARK    6  A    between atoms: O2_11  and  C9_12
REMARK    7  A    between atoms: C19_24  and  O3_26
REMARK    8  A    between atoms: O3_26  and  C21_27
REMARK                            x       y       z     vdW  Elec       q    Type
REMARK                         _______ _______ _______ _____ _____    ______ ____
ROOT
ATOM      1  C4  UNL     1       0.374   0.671   0.199  0.00  0.00    +0.000 A 
ATOM      2  C5  UNL     1      -0.270  -0.243   1.036  0.00  0.00    +0.000 A 
ATOM      3  C6  UNL     1      -1.564  -0.600   0.756  0.00  0.00    +0.000 A 
ATOM      4  C7  UNL     1      -2.254  -0.085  -0.329  0.00  0.00    +0.000 A 
ATOM      5  C15 UNL     1      -1.584   0.812  -1.128  0.00  0.00    +0.000 A 
ATOM      6  C16 UNL     1      -0.282   1.194  -0.877  0.00  0.00    +0.000 A 
ENDROOT
BRANCH   1   7
ATOM      7  C3  UNL     1       1.789   1.067   0.498  0.00  0.00    +0.000 C 
BRANCH   7   8
ATOM      8  O1  UNL     1       2.647   0.195  -0.160  0.00  0.00    +0.000 OA
BRANCH   8  11
ATOM      9 CL1  UNL     1       4.051  -1.947  -1.779  0.00  0.00    +0.000 Cl
ATOM     10  C1  UNL     1       4.781  -0.690  -0.829  0.00  0.00    +0.000 A 
ATOM     11  C2  UNL     1       4.008   0.218  -0.143  0.00  0.00    +0.000 A 
ATOM     12  C17 UNL     1       4.668   1.184   0.587  0.00  0.00    +0.000 A 
ATOM     13  C18 UNL     1       6.048   1.246   0.634  0.00  0.00    +0.000 A 
ATOM     14  C19 UNL     1       6.800   0.326  -0.061  0.00  0.00    +0.000 A 
ATOM     15  C20 UNL     1       6.177  -0.635  -0.787  0.00  0.00    +0.000 A 
BRANCH  14  16
ATOM     16  O3  UNL     1       8.182   0.378  -0.022  0.00  0.00    +0.000 OA
ATOM     17  C21 UNL     1       8.937  -0.566  -0.735  0.00  0.00    +0.000 C 
ENDBRANCH  14  16
ENDBRANCH   8  11
ENDBRANCH   7   8
ENDBRANCH   1   7
BRANCH   4  18
ATOM     18  C8  UNL     1      -3.635  -0.505  -0.577  0.00  0.00    +0.000 C 
BRANCH  18  19
ATOM     19  O2  UNL     1      -4.592   0.324   0.074  0.00  0.00    +0.000 OA
BRANCH  19  20
ATOM     20  C9  UNL     1      -5.930  -0.023  -0.124  0.00  0.00    +0.000 A 
ATOM     21  C10 UNL     1      -6.663   0.493  -1.174  0.00  0.00    +0.000 A 
ATOM     22 CL2  UNL     1      -5.845   1.616  -2.268  0.00  0.00    +0.000 Cl
ATOM     23  C11 UNL     1      -7.985   0.143  -1.361  0.00  0.00    +0.000 A 
ATOM     24  C12 UNL     1      -8.632  -0.733  -0.513  0.00  0.00    +0.000 A 
ATOM     25  C13 UNL     1      -7.903  -1.251   0.538  0.00  0.00    +0.000 A 
ATOM     26  C14 UNL     1      -6.582  -0.899   0.721  0.00  0.00    +0.000 A 
ATOM     27 CL3  UNL     1      -5.631  -1.548   2.057  0.00  0.00    +0.000 Cl
ENDBRANCH  19  20
ENDBRANCH  18  19
ENDBRANCH   4  18
TORSDOF 7
