REMARK  Name = ./3D_structures\o21_MMV218827_3D.pdb
REMARK  8 active torsions:
REMARK  status: ('A' for Active; 'I' for Inactive)
REMARK    1  A    between atoms: S1_1  and  N1_4
REMARK    2  A    between atoms: S1_1  and  C13_21
REMARK    3  A    between atoms: N1_4  and  C1_5
REMARK    4  A    between atoms: C3_7  and  S2_16
REMARK    5  A    between atoms: C4_8  and  O3_15
REMARK    6  A    between atoms: S2_16  and  C11_17
REMARK    7  A    between atoms: C11_17  and  C12_18
REMARK    8  A    between atoms: C12_18  and  O5_20
REMARK                            x       y       z     vdW  Elec       q    Type
REMARK                         _______ _______ _______ _____ _____    ______ ____
ROOT
ATOM      1  C1  UNL     1      -0.394  -1.655  -0.459  0.00  0.00    +0.000 A 
ATOM      2  C2  UNL     1      -0.479  -0.731   0.579  0.00  0.00    +0.000 A 
ATOM      3  C3  UNL     1      -1.636  -0.490   1.272  0.00  0.00    +0.000 A 
ATOM      4  C4  UNL     1      -2.763  -1.232   0.884  0.00  0.00    +0.000 A 
ATOM      5  C5  UNL     1      -2.681  -2.148  -0.144  0.00  0.00    +0.000 A 
ATOM      6  C6  UNL     1      -3.791  -2.880  -0.522  0.00  0.00    +0.000 A 
ATOM      7  C7  UNL     1      -3.750  -3.823  -1.555  0.00  0.00    +0.000 A 
ATOM      8  C8  UNL     1      -2.572  -4.019  -2.207  0.00  0.00    +0.000 A 
ATOM      9  C9  UNL     1      -1.442  -3.312  -1.864  0.00  0.00    +0.000 A 
ATOM     10  C10 UNL     1      -1.504  -2.381  -0.835  0.00  0.00    +0.000 A 
ENDROOT
BRANCH   1  11
ATOM     11  N1  UNL     1       0.817  -1.860  -1.167  0.00  0.00    +0.000 N 
ATOM     12  H1  UNL     1       0.771  -2.052  -2.213  0.00  0.00    +0.000 HD
BRANCH  11  13
ATOM     13  S1  UNL     1       2.385  -1.808  -0.493  0.00  0.00    +0.000 S 
ATOM     14  O1  UNL     1       3.435  -2.081  -1.564  0.00  0.00    +0.000 OA
ATOM     15  O2  UNL     1       2.534  -2.844   0.609  0.00  0.00    +0.000 OA
BRANCH  13  16
ATOM     16  C13 UNL     1       2.811  -0.262   0.193  0.00  0.00    +0.000 A 
ATOM     17  C14 UNL     1       3.181  -0.160   1.517  0.00  0.00    +0.000 A 
ATOM     18  C15 UNL     1       3.543   1.033   2.117  0.00  0.00    +0.000 A 
ATOM     19  C16 UNL     1       3.536   2.185   1.364  0.00  0.00    +0.000 A 
ATOM     20  C17 UNL     1       3.169   2.096   0.044  0.00  0.00    +0.000 A 
ATOM     21  C18 UNL     1       3.158   3.257  -0.730  0.00  0.00    +0.000 A 
ATOM     22  C19 UNL     1       2.789   3.176  -2.060  0.00  0.00    +0.000 A 
ATOM     23  C20 UNL     1       2.445   1.940  -2.566  0.00  0.00    +0.000 A 
ATOM     24  N2  UNL     1       2.451   0.812  -1.833  0.00  0.00    +0.000 NA
ATOM     25  C21 UNL     1       2.810   0.903  -0.545  0.00  0.00    +0.000 A 
ENDBRANCH  13  16
ENDBRANCH  11  13
ENDBRANCH   1  11
BRANCH   4  26
ATOM     26  O3  UNL     1      -3.899  -0.964   1.598  0.00  0.00    +0.000 OA
ATOM     27  H7  UNL     1      -4.758  -1.421   1.420  0.00  0.00    +0.000 HD
ENDBRANCH   4  26
BRANCH   3  28
ATOM     28  S2  UNL     1      -1.714   0.702   2.599  0.00  0.00    +0.000 S 
BRANCH  28  29
ATOM     29  C11 UNL     1      -2.160   2.303   1.872  0.00  0.00    +0.000 C 
BRANCH  29  30
ATOM     30  C12 UNL     1      -2.250   3.364   2.901  0.00  0.00    +0.000 C 
ATOM     31  O4  UNL     1      -2.554   4.518   2.505  0.00  0.00    +0.000 OA
BRANCH  30  32
ATOM     32  O5  UNL     1      -2.024   3.168   4.246  0.00  0.00    +0.000 OA
ATOM     33  H10 UNL     1      -2.004   3.977   4.885  0.00  0.00    +0.000 HD
ENDBRANCH  30  32
ENDBRANCH  29  30
ENDBRANCH  28  29
ENDBRANCH   3  28
TORSDOF 8
