REMARK  Name = ./3D_structures\o22_MMV1782111_3D.pdb
REMARK  13 active torsions:
REMARK  status: ('A' for Active; 'I' for Inactive)
REMARK    1  A    between atoms: C1_1  and  C2_2
REMARK    2  A    between atoms: C2_2  and  C3_3
REMARK    3  A    between atoms: C2_2  and  C4_4
REMARK    4  A    between atoms: N1_6  and  C5_7
REMARK    5  A    between atoms: C6_8  and  N2_22
REMARK    6  A    between atoms: C8_10  and  C13_19
REMARK    7  A    between atoms: C9_12  and  C10_13
REMARK    8  A    between atoms: C10_13  and  O3_14
REMARK    9  A    between atoms: C10_13  and  C11_15
REMARK   10  A    between atoms: C11_15  and  O4_16
REMARK   11  A    between atoms: C11_15  and  C12_17
REMARK   12  A    between atoms: C12_17  and  O5_18
REMARK   13  A    between atoms: C13_19  and  O6_20
REMARK                            x       y       z     vdW  Elec       q    Type
REMARK                         _______ _______ _______ _____ _____    ______ ____
ROOT
ATOM      1  C5  UNL     1       0.095  -0.656  -0.764  0.00  0.00    +0.000 C 
ATOM      2  C6  UNL     1      -0.201  -1.291  -2.086  0.00  0.00    +0.000 C 
ATOM      3  C7  UNL     1      -1.602  -1.765  -2.087  0.00  0.00    +0.000 C 
ATOM      4  C8  UNL     1      -2.501  -1.400  -1.187  0.00  0.00    +0.000 C 
ATOM      5  O2  UNL     1      -2.160  -0.522  -0.162  0.00  0.00    +0.000 OA
ATOM      6  C9  UNL     1      -1.009   0.280  -0.333  0.00  0.00    +0.000 C 
ENDROOT
BRANCH   1   9
ATOM      7  C4  UNL     1       2.453  -0.469   0.141  0.00  0.00    +0.000 C 
ATOM      8  O1  UNL     1       2.211  -1.450   0.895  0.00  0.00    +0.000 OA
ATOM      9  N1  UNL     1       1.402  -0.033  -0.721  0.00  0.00    +0.000 N 
ATOM     10  H8  UNL     1       1.628   0.788  -1.341  0.00  0.00    +0.000 HD
BRANCH   7  12
ATOM     11  C1  UNL     1       3.650   1.670   0.538  0.00  0.00    +0.000 C 
ATOM     12  C2  UNL     1       3.784   0.201   0.156  0.00  0.00    +0.000 C 
ATOM     13  C3  UNL     1       4.506   0.049  -1.151  0.00  0.00    +0.000 C 
ENDBRANCH   7  12
ENDBRANCH   1   9
BRANCH   2  14
ATOM     14  N2  UNL     1       0.734  -2.406  -2.268  0.00  0.00    +0.000 NA
ATOM     15  N3  UNL     1       0.764  -3.339  -1.468  0.00  0.00    +0.000 NA
ATOM     16  N4  UNL     1       0.695  -4.186  -0.564  0.00  0.00    +0.000 NA
ENDBRANCH   2  14
BRANCH   4  17
ATOM     17  C13 UNL     1      -3.866  -1.942  -1.297  0.00  0.00    +0.000 C 
ATOM     18  O7  UNL     1      -4.696  -1.582  -0.436  0.00  0.00    +0.000 OA
BRANCH  17  19
ATOM     19  O6  UNL     1      -4.254  -2.812  -2.290  0.00  0.00    +0.000 OA
ATOM     20  H20 UNL     1      -5.235  -2.922  -2.588  0.00  0.00    +0.000 HD
ENDBRANCH  17  19
ENDBRANCH   4  17
BRANCH   6  21
ATOM     21  C10 UNL     1      -0.591   0.950   0.942  0.00  0.00    +0.000 C 
BRANCH  21  22
ATOM     22  O3  UNL     1      -0.292   0.035   1.955  0.00  0.00    +0.000 OA
ATOM     23  H14 UNL     1      -1.011  -0.589   2.149  0.00  0.00    +0.000 HD
ENDBRANCH  21  22
BRANCH  21  24
ATOM     24  C11 UNL     1      -1.525   2.022   1.412  0.00  0.00    +0.000 C 
BRANCH  24  25
ATOM     25  O4  UNL     1      -0.873   2.685   2.474  0.00  0.00    +0.000 OA
ATOM     26  H16 UNL     1      -0.620   3.607   2.216  0.00  0.00    +0.000 HD
ENDBRANCH  24  25
BRANCH  24  27
ATOM     27  C12 UNL     1      -2.825   1.456   1.930  0.00  0.00    +0.000 C 
BRANCH  27  28
ATOM     28  O5  UNL     1      -3.578   2.535   2.394  0.00  0.00    +0.000 OA
ATOM     29  H19 UNL     1      -4.088   2.959   1.660  0.00  0.00    +0.000 HD
ENDBRANCH  27  28
ENDBRANCH  24  27
ENDBRANCH  21  24
ENDBRANCH   6  21
TORSDOF 11
