REMARK  Name = ./3D_structures\o23_MMV1782097_3D.pdb
REMARK  4 active torsions:
REMARK  status: ('A' for Active; 'I' for Inactive)
REMARK    1  A    between atoms: C4_5  and  C5_6
REMARK    2  A    between atoms: C5_6  and  N1_7
REMARK    3  A    between atoms: C6_8  and  C7_10
REMARK    4  A    between atoms: C8_11  and  O2_12
REMARK                            x       y       z     vdW  Elec       q    Type
REMARK                         _______ _______ _______ _____ _____    ______ ____
ROOT
ATOM      1  C7  UNL     1       1.088   0.564   0.214  0.00  0.00    +0.000 A 
ATOM      2  C8  UNL     1       1.844  -0.438   0.825  0.00  0.00    +0.000 A 
ATOM      3  C9  UNL     1       3.125  -0.694   0.387  0.00  0.00    +0.000 A 
ATOM      4  C10 UNL     1       3.712   0.011  -0.654  0.00  0.00    +0.000 A 
ATOM      5  N2  UNL     1       2.973   0.965  -1.227  0.00  0.00    +0.000 N 
ATOM      6  C11 UNL     1       1.700   1.233  -0.806  0.00  0.00    +0.000 A 
ATOM      7  O3  UNL     1       1.089   2.138  -1.398  0.00  0.00    +0.000 OA
ATOM      8  C12 UNL     1       4.991  -0.260  -1.081  0.00  0.00    +0.000 A 
ATOM      9  C13 UNL     1       5.697  -1.256  -0.451  0.00  0.00    +0.000 A 
ATOM     10  C14 UNL     1       5.079  -1.937   0.583  0.00  0.00    +0.000 A 
ATOM     11  N3  UNL     1       3.831  -1.672   0.999  0.00  0.00    +0.000 NA
ATOM     12  H7  UNL     1       3.398   1.513  -2.019  0.00  0.00    +0.000 HD
ENDROOT
BRANCH   1  14
ATOM     13  N1  UNL     1      -1.178   1.735   0.243  0.00  0.00    +0.000 N 
ATOM     14  C6  UNL     1      -0.240   0.781   0.713  0.00  0.00    +0.000 C 
ATOM     15  O1  UNL     1      -0.679   0.068   1.686  0.00  0.00    +0.000 OA
ATOM     16  H5  UNL     1      -0.945   2.359  -0.525  0.00  0.00    +0.000 HD
BRANCH  13  17
ATOM     17  C5  UNL     1      -2.519   1.863   0.838  0.00  0.00    +0.000 C 
BRANCH  17  22
ATOM     18  F1  UNL     1      -5.986  -2.229  -0.805  0.00  0.00    +0.000 F 
ATOM     19  C1  UNL     1      -5.125  -1.238  -0.412  0.00  0.00    +0.000 A 
ATOM     20  C2  UNL     1      -3.789  -1.246  -0.799  0.00  0.00    +0.000 A 
ATOM     21  C3  UNL     1      -2.916  -0.247  -0.405  0.00  0.00    +0.000 A 
ATOM     22  C4  UNL     1      -3.398   0.772   0.389  0.00  0.00    +0.000 A 
ATOM     23  C15 UNL     1      -4.736   0.789   0.782  0.00  0.00    +0.000 A 
ATOM     24  C16 UNL     1      -5.593  -0.223   0.375  0.00  0.00    +0.000 A 
ENDBRANCH  17  22
ENDBRANCH  13  17
ENDBRANCH   1  14
BRANCH   2  25
ATOM     25  O2  UNL     1       1.299  -1.177   1.881  0.00  0.00    +0.000 OA
ATOM     26  H6  UNL     1       1.841  -1.903   2.327  0.00  0.00    +0.000 HD
ENDBRANCH   2  25
TORSDOF 4
