REMARK  Name = ./3D_structures\o24_MMV1634398_3D.pdb
REMARK  14 active torsions:
REMARK  status: ('A' for Active; 'I' for Inactive)
REMARK    1  A    between atoms: C1_2  and  C13_18
REMARK    2  A    between atoms: N1_3  and  N2_4
REMARK    3  A    between atoms: C2_5  and  C3_6
REMARK    4  A    between atoms: C5_8  and  O3_15
REMARK    5  A    between atoms: C6_9  and  O2_10
REMARK    6  A    between atoms: O2_10  and  C7_11
REMARK    7  A    between atoms: C7_11  and  C8_12
REMARK    8  A    between atoms: O3_15  and  C11_16
REMARK    9  A    between atoms: C11_16  and  C12_17
REMARK   10  A    between atoms: C14_19  and  C15_20
REMARK   11  A    between atoms: C18_23  and  C19_24
REMARK   12  A    between atoms: C19_24  and  C20_25
REMARK   13  A    between atoms: C19_24  and  C21_26
REMARK   14  A    between atoms: C19_24  and  C22_27
REMARK                            x       y       z     vdW  Elec       q    Type
REMARK                         _______ _______ _______ _____ _____    ______ ____
ROOT
ATOM      1  O1  UNL     1       1.233  -0.873  -1.006  0.00  0.00    +0.000 OA
ATOM      2  C1  UNL     1       1.286  -2.108  -1.082  0.00  0.00    +0.000 C 
ATOM      3  N1  UNL     1       0.087  -2.848  -0.781  0.00  0.00    +0.000 N 
ATOM      4  H1  UNL     1       0.225  -3.909  -0.869  0.00  0.00    +0.000 HD
ENDROOT
BRANCH   2   5
ATOM      5  C13 UNL     1       2.527  -2.811  -1.471  0.00  0.00    +0.000 C 
ATOM      6  C14 UNL     1       3.867  -2.246  -1.511  0.00  0.00    +0.000 C 
ATOM      7  C25 UNL     1       3.151  -2.294  -2.790  0.00  0.00    +0.000 C 
BRANCH   6   8
ATOM      8  C15 UNL     1       4.267  -0.956  -0.888  0.00  0.00    +0.000 A 
ATOM      9  C16 UNL     1       4.997  -0.926   0.287  0.00  0.00    +0.000 A 
ATOM     10  C17 UNL     1       5.414   0.246   0.866  0.00  0.00    +0.000 A 
ATOM     11  C18 UNL     1       5.127   1.494   0.301  0.00  0.00    +0.000 A 
ATOM     12  C23 UNL     1       4.403   1.475  -0.865  0.00  0.00    +0.000 A 
ATOM     13  C24 UNL     1       3.981   0.271  -1.446  0.00  0.00    +0.000 A 
BRANCH  11  14
ATOM     14  C19 UNL     1       5.595   2.741   0.941  0.00  0.00    +0.000 C 
ATOM     15  C20 UNL     1       5.510   3.901  -0.012  0.00  0.00    +0.000 C 
ATOM     16  C21 UNL     1       4.885   3.073   2.227  0.00  0.00    +0.000 C 
ATOM     17  C22 UNL     1       7.093   2.634   1.301  0.00  0.00    +0.000 C 
ENDBRANCH  11  14
ENDBRANCH   6   8
ENDBRANCH   2   5
BRANCH   3  18
ATOM     18  N2  UNL     1      -1.120  -2.339  -0.421  0.00  0.00    +0.000 NA
ATOM     19  C2  UNL     1      -1.398  -1.417   0.390  0.00  0.00    +0.000 C 
BRANCH  19  20
ATOM     20  C3  UNL     1      -2.810  -1.031   0.625  0.00  0.00    +0.000 A 
ATOM     21  C4  UNL     1      -3.802  -1.633  -0.101  0.00  0.00    +0.000 A 
ATOM     22  C5  UNL     1      -5.168  -1.375   0.057  0.00  0.00    +0.000 A 
ATOM     23  C6  UNL     1      -5.532  -0.440   1.029  0.00  0.00    +0.000 A 
ATOM     24  C9  UNL     1      -4.550   0.183   1.776  0.00  0.00    +0.000 A 
ATOM     25  C10 UNL     1      -3.202  -0.117   1.569  0.00  0.00    +0.000 A 
BRANCH  23  26
ATOM     26  O2  UNL     1      -6.875  -0.210   1.169  0.00  0.00    +0.000 OA
BRANCH  26  27
ATOM     27  C7  UNL     1      -7.449   0.691   2.066  0.00  0.00    +0.000 C 
ATOM     28  C8  UNL     1      -6.953   2.080   1.707  0.00  0.00    +0.000 C 
ENDBRANCH  26  27
ENDBRANCH  23  26
BRANCH  22  29
ATOM     29  O3  UNL     1      -6.033  -1.986  -0.681  0.00  0.00    +0.000 OA
BRANCH  29  30
ATOM     30  C11 UNL     1      -6.723  -2.700  -1.515  0.00  0.00    +0.000 C 
ATOM     31  C12 UNL     1      -6.351  -2.428  -3.001  0.00  0.00    +0.000 C 
ENDBRANCH  29  30
ENDBRANCH  22  29
ENDBRANCH  19  20
ENDBRANCH   3  18
TORSDOF 9
