REMARK  Name = ./3D_structures\o28_MMV688991_3D.pdb
REMARK  5 active torsions:
REMARK  status: ('A' for Active; 'I' for Inactive)
REMARK    1  A    between atoms: C3_5  and  N2_6
REMARK    2  A    between atoms: C4_10  and  C5_12
REMARK    3  A    between atoms: C6_13  and  O4_14
REMARK    4  A    between atoms: O4_14  and  C7_15
REMARK    5  A    between atoms: C7_15  and  C8_17
REMARK                            x       y       z     vdW  Elec       q    Type
REMARK                         _______ _______ _______ _____ _____    ______ ____
ROOT
ATOM      1  S1  UNL     1       2.990   1.829   0.071  0.00  0.00    +0.000 S 
ATOM      2  C1  UNL     1       2.214   0.129   0.153  0.00  0.00    +0.000 A 
ATOM      3  N1  UNL     1       3.211  -0.563   0.158  0.00  0.00    +0.000 NA
ATOM      4  C2  UNL     1       4.455  -0.177   0.117  0.00  0.00    +0.000 A 
ATOM      5  C3  UNL     1       4.664   1.193   0.059  0.00  0.00    +0.000 A 
ATOM      6  N3  UNL     1       0.790   0.010   0.188  0.00  0.00    +0.000 N 
ATOM      7  C4  UNL     1       0.157  -1.249   0.250  0.00  0.00    +0.000 C 
ATOM      8  O3  UNL     1       0.994  -2.242   0.273  0.00  0.00    +0.000 OA
ATOM      9  H2  UNL     1       0.236   0.872   0.166  0.00  0.00    +0.000 HD
ENDROOT
BRANCH   7  10
ATOM     10  C5  UNL     1      -1.252  -1.500   0.286  0.00  0.00    +0.000 A 
ATOM     11  C6  UNL     1      -2.189  -0.534   0.244  0.00  0.00    +0.000 A 
ATOM     12  C9  UNL     1      -3.534  -0.886   0.322  0.00  0.00    +0.000 A 
ATOM     13  C10 UNL     1      -3.925  -2.187   0.440  0.00  0.00    +0.000 A 
ATOM     14  C11 UNL     1      -2.979  -3.174   0.482  0.00  0.00    +0.000 A 
ATOM     15  C12 UNL     1      -1.649  -2.837   0.406  0.00  0.00    +0.000 A 
BRANCH  11  16
ATOM     16  O4  UNL     1      -1.955   0.823   0.123  0.00  0.00    +0.000 OA
BRANCH  16  17
ATOM     17  C7  UNL     1      -2.197   1.493  -1.081  0.00  0.00    +0.000 C 
ATOM     18  O5  UNL     1      -2.634   0.795  -2.032  0.00  0.00    +0.000 OA
ATOM     19  C8  UNL     1      -1.970   2.930  -1.278  0.00  0.00    +0.000 C 
ENDBRANCH  16  17
ENDBRANCH  11  16
ENDBRANCH   7  10
BRANCH   5  20
ATOM     20  N2  UNL     1       5.844   1.950   0.005  0.00  0.00    +0.000 N 
ATOM     21  O1  UNL     1       5.805   3.320  -0.047  0.00  0.00    +0.000 OA
ATOM     22  O2  UNL     1       6.914   1.312   0.007  0.00  0.00    +0.000 OA
ENDBRANCH   5  20
TORSDOF 4
