REMARK  Name = ./3D_structures\o30_MMV637855_3D.pdb
REMARK  3 active torsions:
REMARK  status: ('A' for Active; 'I' for Inactive)
REMARK    1  A    between atoms: N1_1  and  C1_2
REMARK    2  A    between atoms: C1_2  and  C2_3
REMARK    3  A    between atoms: C1_2  and  C12_13
REMARK                            x       y       z     vdW  Elec       q    Type
REMARK                         _______ _______ _______ _____ _____    ______ ____
ROOT
ATOM      1  C2  UNL     1       0.640  -0.045   0.204  0.00  0.00    +0.000 C 
ATOM      2  C3  UNL     1       0.328   0.674  -1.085  0.00  0.00    +0.000 C 
ATOM      3  C4  UNL     1      -1.169   0.717  -1.284  0.00  0.00    +0.000 C 
ATOM      4  C5  UNL     1      -1.693  -0.676  -1.428  0.00  0.00    +0.000 C 
ATOM      5  C6  UNL     1      -1.302  -1.473  -0.222  0.00  0.00    +0.000 C 
ATOM      6  C7  UNL     1       0.170  -1.460   0.051  0.00  0.00    +0.000 C 
ATOM      7  C8  UNL     1      -2.060  -0.885   0.971  0.00  0.00    +0.000 C 
ATOM      8  C9  UNL     1      -1.621   0.533   1.121  0.00  0.00    +0.000 C 
ATOM      9  C10 UNL     1      -0.131   0.557   1.375  0.00  0.00    +0.000 C 
ATOM     10  C11 UNL     1      -1.875   1.365  -0.113  0.00  0.00    +0.000 C 
ENDROOT
BRANCH   1  11
ATOM     11  C1  UNL     1       2.104   0.046   0.560  0.00  0.00    +0.000 C 
ATOM     12  C12 UNL     1       2.989  -0.609  -0.473  0.00  0.00    +0.000 C 
BRANCH  11  13
ATOM     13  N1  UNL     1       2.526   1.421   0.726  0.00  0.00    +0.000 NA
ATOM     14  H1  UNL     1       2.514   1.973  -0.145  0.00  0.00    +0.000 HD
ATOM     15  H2  UNL     1       2.176   1.882   1.572  0.00  0.00    +0.000 HD
ENDBRANCH  11  13
ENDBRANCH   1  11
TORSDOF 2
