REMARK  Name = ./3D_structures\o32_MMV1580493_3D.pdb
REMARK  6 active torsions:
REMARK  status: ('A' for Active; 'I' for Inactive)
REMARK    1  A    between atoms: C1_2  and  C2_5
REMARK    2  A    between atoms: C4_7  and  C9_15
REMARK    3  A    between atoms: C6_9  and  C8_11
REMARK    4  A    between atoms: N2_17  and  C10_18
REMARK    5  A    between atoms: C11_19  and  C12_20
REMARK    6  A    between atoms: N3_22  and  N4_23
REMARK                            x       y       z     vdW  Elec       q    Type
REMARK                         _______ _______ _______ _____ _____    ______ ____
ROOT
ATOM      1  C9  UNL     1      -2.123   0.443   0.584  0.00  0.00    +0.000 A 
ATOM      2  N1  UNL     1      -1.320  -0.607   0.516  0.00  0.00    +0.000 NA
ATOM      3  N2  UNL     1       0.006  -0.221   0.620  0.00  0.00    +0.000 N 
ATOM      4  C18 UNL     1      -0.034   1.081   0.752  0.00  0.00    +0.000 A 
ATOM      5  N6  UNL     1      -1.332   1.507   0.733  0.00  0.00    +0.000 NA
ENDROOT
BRANCH   1   8
ATOM      6  C2  UNL     1      -5.358  -1.313  -0.097  0.00  0.00    +0.000 A 
ATOM      7  C3  UNL     1      -3.995  -0.999   0.126  0.00  0.00    +0.000 A 
ATOM      8  C4  UNL     1      -3.556   0.262   0.393  0.00  0.00    +0.000 A 
ATOM      9  C5  UNL     1      -4.455   1.287   0.448  0.00  0.00    +0.000 A 
ATOM     10  C6  UNL     1      -5.816   1.009   0.240  0.00  0.00    +0.000 A 
ATOM     11  C7  UNL     1      -6.252  -0.273  -0.025  0.00  0.00    +0.000 A 
BRANCH   6  13
ATOM     12  F1  UNL     1      -6.678  -3.255   0.418  0.00  0.00    +0.000 F 
ATOM     13  C1  UNL     1      -5.761  -2.693  -0.448  0.00  0.00    +0.000 C 
ATOM     14  F2  UNL     1      -4.622  -3.532  -0.299  0.00  0.00    +0.000 F 
ATOM     15  F3  UNL     1      -6.187  -2.798  -1.760  0.00  0.00    +0.000 F 
ENDBRANCH   6  13
BRANCH  10  16
ATOM     16  C8  UNL     1      -6.863   2.064   0.271  0.00  0.00    +0.000 C 
ATOM     17  F4  UNL     1      -6.303   3.285   0.297  0.00  0.00    +0.000 F 
ATOM     18  F5  UNL     1      -7.775   1.802  -0.748  0.00  0.00    +0.000 F 
ATOM     19  F6  UNL     1      -7.560   1.890   1.526  0.00  0.00    +0.000 F 
ENDBRANCH  10  16
ENDBRANCH   1   8
BRANCH   3  20
ATOM     20  C10 UNL     1       0.863  -1.295   0.429  0.00  0.00    +0.000 C 
ATOM     21  C11 UNL     1       2.058  -1.268   0.163  0.00  0.00    +0.000 C 
BRANCH  21  22
ATOM     22  C12 UNL     1       3.010  -0.261  -0.011  0.00  0.00    +0.000 C 
ATOM     23  O1  UNL     1       4.070  -0.740  -0.706  0.00  0.00    +0.000 OA
ATOM     24  N3  UNL     1       3.300   1.061   0.278  0.00  0.00    +0.000 N 
ATOM     25  H6  UNL     1       2.666   1.578   0.892  0.00  0.00    +0.000 HD
BRANCH  24  26
ATOM     26  N4  UNL     1       4.489   1.673  -0.182  0.00  0.00    +0.000 N 
ATOM     27  C13 UNL     1       5.722   1.050  -0.061  0.00  0.00    +0.000 A 
ATOM     28  N5  UNL     1       6.736   1.370  -0.901  0.00  0.00    +0.000 NA
ATOM     29  C14 UNL     1       7.912   0.740  -0.862  0.00  0.00    +0.000 A 
ATOM     30  C15 UNL     1       8.193  -0.284  -0.002  0.00  0.00    +0.000 A 
ATOM     31  C16 UNL     1       7.193  -0.652   0.881  0.00  0.00    +0.000 A 
ATOM     32  C17 UNL     1       5.972   0.025   0.832  0.00  0.00    +0.000 A 
ATOM     33  H7  UNL     1       4.405   2.600  -0.600  0.00  0.00    +0.000 HD
ENDBRANCH  24  26
ENDBRANCH  21  22
ENDBRANCH   3  20
TORSDOF 6
