REMARK  Name = ./3D_structures\o33_MMV1580482_3D.pdb
REMARK  5 active torsions:
REMARK  status: ('A' for Active; 'I' for Inactive)
REMARK    1  A    between atoms: C3_5  and  C20_24
REMARK    2  A    between atoms: C6_8  and  C8_10
REMARK    3  A    between atoms: C11_13  and  C12_14
REMARK    4  A    between atoms: C12_14  and  N3_15
REMARK    5  A    between atoms: N4_18  and  C15_19
REMARK                            x       y       z     vdW  Elec       q    Type
REMARK                         _______ _______ _______ _____ _____    ______ ____
ROOT
ATOM      1  N1  UNL     1       1.985  -4.058   0.960  0.00  0.00    +0.000 NA
ATOM      2  C1  UNL     1       3.207  -3.505   0.748  0.00  0.00    +0.000 A 
ATOM      3  N2  UNL     1       4.436  -4.082   0.685  0.00  0.00    +0.000 N 
ATOM      4  C2  UNL     1       5.327  -3.103   0.452  0.00  0.00    +0.000 A 
ATOM      5  C3  UNL     1       4.670  -1.895   0.363  0.00  0.00    +0.000 A 
ATOM      6  C4  UNL     1       3.328  -2.147   0.550  0.00  0.00    +0.000 A 
ATOM      7  C5  UNL     1       2.197  -1.331   0.568  0.00  0.00    +0.000 A 
ATOM      8  C6  UNL     1       0.979  -1.918   0.785  0.00  0.00    +0.000 A 
ATOM      9  C7  UNL     1       0.883  -3.267   0.978  0.00  0.00    +0.000 A 
ATOM     10  H1  UNL     1       4.653  -5.107   0.798  0.00  0.00    +0.000 HD
ENDROOT
BRANCH   5  11
ATOM     11  C20 UNL     1       5.258  -0.602   0.127  0.00  0.00    +0.000 A 
ATOM     12  C21 UNL     1       6.181  -0.456  -0.883  0.00  0.00    +0.000 A 
ATOM     13  C22 UNL     1       6.789   0.738  -1.172  0.00  0.00    +0.000 A 
ATOM     14  C23 UNL     1       6.457   1.837  -0.415  0.00  0.00    +0.000 A 
ATOM     15  N5  UNL     1       7.183   2.876  -0.893  0.00  0.00    +0.000 N 
ATOM     16  C24 UNL     1       7.962   2.504  -1.914  0.00  0.00    +0.000 A 
ATOM     17  C25 UNL     1       7.712   1.139  -2.094  0.00  0.00    +0.000 A 
ATOM     18  C26 UNL     1       5.533   1.699   0.597  0.00  0.00    +0.000 A 
ATOM     19  C27 UNL     1       4.927   0.496   0.882  0.00  0.00    +0.000 A 
ATOM     20  H23 UNL     1       7.156   3.863  -0.526  0.00  0.00    +0.000 HD
ENDBRANCH   5  11
BRANCH   8  21
ATOM     21  C8  UNL     1      -0.217  -1.064   0.806  0.00  0.00    +0.000 A 
ATOM     22  C9  UNL     1      -0.206   0.051  -0.003  0.00  0.00    +0.000 A 
ATOM     23  C10 UNL     1      -1.308   0.873  -0.007  0.00  0.00    +0.000 A 
ATOM     24  C11 UNL     1      -2.401   0.568   0.798  0.00  0.00    +0.000 A 
ATOM     25  C18 UNL     1      -2.410  -0.549   1.606  0.00  0.00    +0.000 A 
ATOM     26  C19 UNL     1      -1.292  -1.379   1.607  0.00  0.00    +0.000 A 
BRANCH  24  27
ATOM     27  C12 UNL     1      -3.598   1.449   0.812  0.00  0.00    +0.000 C 
BRANCH  27  28
ATOM     28  N3  UNL     1      -4.423   1.314  -0.355  0.00  0.00    +0.000 NA
ATOM     29  C13 UNL     1      -5.549   2.193  -0.269  0.00  0.00    +0.000 C 
ATOM     30  C14 UNL     1      -6.656   1.474   0.466  0.00  0.00    +0.000 C 
ATOM     31  N4  UNL     1      -7.156   0.392  -0.350  0.00  0.00    +0.000 NA
ATOM     32  C15 UNL     1      -8.149   0.921  -1.266  0.00  0.00    +0.000 C 
ATOM     33  C16 UNL     1      -6.138  -0.262  -1.131  0.00  0.00    +0.000 C 
ATOM     34  C17 UNL     1      -4.751  -0.051  -0.575  0.00  0.00    +0.000 C 
ENDBRANCH  27  28
ENDBRANCH  24  27
ENDBRANCH   8  21
TORSDOF 4
