REMARK  Name = ./3D_structures\o34_MMV1580501_3D.pdb
REMARK  7 active torsions:
REMARK  status: ('A' for Active; 'I' for Inactive)
REMARK    1  A    between atoms: C4_5  and  N1_6
REMARK    2  A    between atoms: C5_7  and  C6_9
REMARK    3  A    between atoms: N2_11  and  C7_12
REMARK    4  A    between atoms: C9_14  and  C14_20
REMARK    5  A    between atoms: C9_14  and  C15_21
REMARK    6  A    between atoms: C10_16  and  C12_18
REMARK    7  A    between atoms: C10_16  and  C13_19
REMARK                            x       y       z     vdW  Elec       q    Type
REMARK                         _______ _______ _______ _____ _____    ______ ____
ROOT
ATOM      1  C6  UNL     1       1.240   0.389  -0.399  0.00  0.00    +0.000 C 
ATOM      2  O2  UNL     1       1.010   1.042  -1.444  0.00  0.00    +0.000 OA
ATOM      3  N2  UNL     1       0.148  -0.158   0.327  0.00  0.00    +0.000 N 
ATOM      4  H4  UNL     1       0.401  -0.697   1.196  0.00  0.00    +0.000 HD
ENDROOT
BRANCH   3   5
ATOM      5  C7  UNL     1      -1.239   0.007  -0.090  0.00  0.00    +0.000 C 
ATOM      6  C8  UNL     1      -2.010   0.716   0.956  0.00  0.00    +0.000 C 
ATOM      7  C9  UNL     1      -3.453   0.395   1.041  0.00  0.00    +0.000 C 
ATOM      8  N3  UNL     1      -3.923  -0.733   0.359  0.00  0.00    +0.000 NA
ATOM      9  C10 UNL     1      -3.233  -1.186  -0.778  0.00  0.00    +0.000 C 
ATOM     10  C11 UNL     1      -1.765  -1.342  -0.452  0.00  0.00    +0.000 C 
ATOM     11  C12 UNL     1      -3.438  -0.370  -2.027  0.00  0.00    +0.000 C 
ATOM     12  C13 UNL     1      -3.737  -2.601  -1.105  0.00  0.00    +0.000 C 
ATOM     13  C14 UNL     1      -3.791   0.201   2.528  0.00  0.00    +0.000 C 
ATOM     14  C15 UNL     1      -4.297   1.605   0.613  0.00  0.00    +0.000 C 
ATOM     15  H8  UNL     1      -4.350  -1.478   0.943  0.00  0.00    +0.000 HD
ENDBRANCH   3   5
BRANCH   1  17
ATOM     16  N1  UNL     1       3.722   0.734  -0.649  0.00  0.00    +0.000 N 
ATOM     17  C5  UNL     1       2.637   0.190   0.074  0.00  0.00    +0.000 C 
ATOM     18  O1  UNL     1       2.864  -0.459   1.110  0.00  0.00    +0.000 OA
ATOM     19  H3  UNL     1       3.423   1.272  -1.522  0.00  0.00    +0.000 HD
BRANCH  16  24
ATOM     20 CL1  UNL     1       9.605   0.535   0.345  0.00  0.00    +0.000 Cl
ATOM     21  C1  UNL     1       7.873   0.591   0.055  0.00  0.00    +0.000 A 
ATOM     22  C2  UNL     1       7.343   1.250  -1.032  0.00  0.00    +0.000 A 
ATOM     23  C3  UNL     1       5.979   1.267  -1.218  0.00  0.00    +0.000 A 
ATOM     24  C4  UNL     1       5.086   0.638  -0.341  0.00  0.00    +0.000 A 
ATOM     25  C16 UNL     1       5.667   0.002   0.718  0.00  0.00    +0.000 A 
ATOM     26  C17 UNL     1       7.033  -0.042   0.944  0.00  0.00    +0.000 A 
ENDBRANCH  16  24
ENDBRANCH   1  17
TORSDOF 3
