REMARK  Name = ./3D_structures\o36_MMV1580490_3D.pdb
REMARK  4 active torsions:
REMARK  status: ('A' for Active; 'I' for Inactive)
REMARK    1  A    between atoms: N3_7  and  C5_8
REMARK    2  A    between atoms: C5_8  and  C6_9
REMARK    3  A    between atoms: C9_12  and  C10_13
REMARK    4  A    between atoms: C10_13  and  N4_14
REMARK                            x       y       z     vdW  Elec       q    Type
REMARK                         _______ _______ _______ _____ _____    ______ ____
ROOT
ATOM      1  C6  UNL     1       1.372  -0.459   0.925  0.00  0.00    +0.000 A 
ATOM      2  C7  UNL     1       0.816  -1.018  -0.201  0.00  0.00    +0.000 A 
ATOM      3  C8  UNL     1      -0.568  -1.097  -0.353  0.00  0.00    +0.000 A 
ATOM      4  C9  UNL     1      -1.342  -0.592   0.671  0.00  0.00    +0.000 A 
ATOM      5  C15 UNL     1      -0.809  -0.024   1.816  0.00  0.00    +0.000 A 
ATOM      6  C16 UNL     1       0.576   0.038   1.934  0.00  0.00    +0.000 A 
ENDROOT
BRANCH   1   7
ATOM      7  C5  UNL     1       2.844  -0.386   1.058  0.00  0.00    +0.000 C 
BRANCH   7  14
ATOM      8  N1  UNL     1       5.616  -0.136   0.676  0.00  0.00    +0.000 NA
ATOM      9  C1  UNL     1       4.799   0.043  -0.390  0.00  0.00    +0.000 A 
ATOM     10  N2  UNL     1       5.327   0.334  -1.594  0.00  0.00    +0.000 NA
ATOM     11  C2  UNL     1       6.657   0.449  -1.755  0.00  0.00    +0.000 A 
ATOM     12  C3  UNL     1       7.513   0.272  -0.688  0.00  0.00    +0.000 A 
ATOM     13  C4  UNL     1       6.933  -0.023   0.525  0.00  0.00    +0.000 A 
ATOM     14  N3  UNL     1       3.389  -0.072  -0.253  0.00  0.00    +0.000 N 
ATOM     15  H4  UNL     1       2.786   0.072  -1.086  0.00  0.00    +0.000 HD
ENDBRANCH   7  14
ENDBRANCH   1   7
BRANCH   4  16
ATOM     16  C10 UNL     1      -2.806  -0.660   0.541  0.00  0.00    +0.000 C 
BRANCH  16  17
ATOM     17  N4  UNL     1      -3.358   0.516  -0.103  0.00  0.00    +0.000 N 
ATOM     18  C11 UNL     1      -4.774   0.560  -0.284  0.00  0.00    +0.000 A 
ATOM     19  N5  UNL     1      -5.343   1.633  -0.879  0.00  0.00    +0.000 NA
ATOM     20  C12 UNL     1      -6.678   1.706  -1.065  0.00  0.00    +0.000 A 
ATOM     21  C13 UNL     1      -7.520   0.678  -0.651  0.00  0.00    +0.000 A 
ATOM     22  C14 UNL     1      -6.917  -0.404  -0.048  0.00  0.00    +0.000 A 
ATOM     23  N6  UNL     1      -5.583  -0.424   0.112  0.00  0.00    +0.000 NA
ATOM     24  H11 UNL     1      -2.771   1.311  -0.431  0.00  0.00    +0.000 HD
ENDBRANCH  16  17
ENDBRANCH   4  16
TORSDOF 4
