REMARK  Name = ./3D_structures\o39_MMV1634392_3D.pdb
REMARK  9 active torsions:
REMARK  status: ('A' for Active; 'I' for Inactive)
REMARK    1  A    between atoms: C1_2  and  C7_11
REMARK    2  A    between atoms: C2_4  and  C6_10
REMARK    3  A    between atoms: C3_5  and  C4_6
REMARK    4  A    between atoms: C4_6  and  O2_8
REMARK    5  A    between atoms: O2_8  and  C5_9
REMARK    6  A    between atoms: C10_14  and  C11_15
REMARK    7  A    between atoms: C11_15  and  C12_16
REMARK    8  A    between atoms: C12_16  and  C13_17
REMARK    9  A    between atoms: C13_17  and  C14_18
REMARK                            x       y       z     vdW  Elec       q    Type
REMARK                         _______ _______ _______ _____ _____    ______ ____
ROOT
ATOM      1  S1  UNL     1       2.709  -0.815   0.525  0.00  0.00    +0.000 S 
ATOM      2  C1  UNL     1       1.399   0.485   0.141  0.00  0.00    +0.000 A 
ATOM      3  N1  UNL     1       2.091   1.314  -0.301  0.00  0.00    +0.000 NA
ATOM      4  C2  UNL     1       3.381   1.313  -0.468  0.00  0.00    +0.000 A 
ATOM      5  C3  UNL     1       4.022   0.141  -0.052  0.00  0.00    +0.000 A 
ATOM      6  C6  UNL     1       4.166   2.452  -1.053  0.00  0.00    +0.000 C 
ENDROOT
BRANCH   2   7
ATOM      7  C7  UNL     1      -0.024   0.150   0.468  0.00  0.00    +0.000 A 
ATOM      8  C8  UNL     1      -0.388  -1.038   1.021  0.00  0.00    +0.000 A 
ATOM      9  C9  UNL     1      -1.711  -1.280   1.295  0.00  0.00    +0.000 A 
ATOM     10  C10 UNL     1      -2.714  -0.369   1.037  0.00  0.00    +0.000 A 
ATOM     11  C15 UNL     1      -2.298   0.821   0.477  0.00  0.00    +0.000 A 
ATOM     12  C16 UNL     1      -0.987   1.092   0.192  0.00  0.00    +0.000 A 
BRANCH  10  13
ATOM     13  C11 UNL     1      -4.125  -0.609   1.324  0.00  0.00    +0.000 C 
BRANCH  13  14
ATOM     14  C12 UNL     1      -4.911  -1.253   0.235  0.00  0.00    +0.000 C 
BRANCH  14  15
ATOM     15  C13 UNL     1      -4.978  -0.507  -1.051  0.00  0.00    +0.000 C 
ATOM     16  C14 UNL     1      -5.596   0.846  -0.950  0.00  0.00    +0.000 C 
ENDBRANCH  14  15
ENDBRANCH  13  14
ENDBRANCH  10  13
ENDBRANCH   2   7
BRANCH   5  17
ATOM     17  C4  UNL     1       5.447  -0.158  -0.109  0.00  0.00    +0.000 C 
ATOM     18  O1  UNL     1       6.209   0.713  -0.578  0.00  0.00    +0.000 OA
BRANCH  17  19
ATOM     19  O2  UNL     1       5.980  -1.348   0.328  0.00  0.00    +0.000 OA
ATOM     20  C5  UNL     1       7.337  -1.683   0.295  0.00  0.00    +0.000 C 
ENDBRANCH  17  19
ENDBRANCH   5  17
TORSDOF 6
