REMARK  Name = ./3D_structures\o41_MMV1581035_3D.pdb
REMARK  2 active torsions:
REMARK  status: ('A' for Active; 'I' for Inactive)
REMARK    1  A    between atoms: C1_2  and  C2_4
REMARK    2  A    between atoms: C4_6  and  N2_11
REMARK                            x       y       z     vdW  Elec       q    Type
REMARK                         _______ _______ _______ _____ _____    ______ ____
ROOT
ATOM      1  C2  UNL     1       0.761  -0.282   0.011  0.00  0.00    +0.000 A 
ATOM      2  C3  UNL     1      -0.432  -0.958  -0.089  0.00  0.00    +0.000 A 
ATOM      3  C4  UNL     1      -1.617  -0.257  -0.052  0.00  0.00    +0.000 A 
ATOM      4  C5  UNL     1      -1.600   1.128   0.085  0.00  0.00    +0.000 A 
ATOM      5  I1  UNL     1      -3.419   2.131   0.135  0.00  0.00    +0.000 I 
ATOM      6  C6  UNL     1      -0.421   1.834   0.187  0.00  0.00    +0.000 A 
ATOM      7  C7  UNL     1       0.746   1.108   0.147  0.00  0.00    +0.000 A 
ENDROOT
BRANCH   1   9
ATOM      8  N1  UNL     1       3.253  -0.300   0.057  0.00  0.00    +0.000 N 
ATOM      9  C1  UNL     1       2.024  -1.000  -0.024  0.00  0.00    +0.000 C 
ATOM     10  O1  UNL     1       2.016  -2.246  -0.126  0.00  0.00    +0.000 OA
ATOM     11  H1  UNL     1       3.799  -0.094  -0.792  0.00  0.00    +0.000 HD
ATOM     12  H2  UNL     1       3.589   0.002   0.995  0.00  0.00    +0.000 HD
ENDBRANCH   1   9
BRANCH   3  13
ATOM     13  N2  UNL     1      -2.823  -0.999  -0.159  0.00  0.00    +0.000 N 
ATOM     14  O2  UNL     1      -3.948  -0.476   0.422  0.00  0.00    +0.000 OA
ATOM     15  O3  UNL     1      -2.835  -2.075  -0.759  0.00  0.00    +0.000 OA
ENDBRANCH   3  13
TORSDOF 2
