REMARK  Name = ./3D_structures\o44_MMV1593514_3D.pdb
REMARK  7 active torsions:
REMARK  status: ('A' for Active; 'I' for Inactive)
REMARK    1  A    between atoms: C3_4  and  C7_8
REMARK    2  A    between atoms: C7_8  and  N1_9
REMARK    3  A    between atoms: N5_18  and  C13_19
REMARK    4  A    between atoms: C14_21  and  C15_22
REMARK    5  A    between atoms: N6_24  and  C16_25
REMARK    6  A    between atoms: C17_26  and  O4_29
REMARK    7  A    between atoms: C18_27  and  O3_28
REMARK                            x       y       z     vdW  Elec       q    Type
REMARK                         _______ _______ _______ _____ _____    ______ ____
ROOT
ATOM      1  N1  UNL     1       3.232  -0.889  -2.024  0.00  0.00    +0.000 N 
ATOM      2  C8  UNL     1       2.217  -0.117  -1.412  0.00  0.00    +0.000 C 
ATOM      3  N2  UNL     1       2.372   1.077  -0.862  0.00  0.00    +0.000 NA
ATOM      4  C9  UNL     1       1.348   1.740  -0.301  0.00  0.00    +0.000 C 
ATOM      5  N3  UNL     1       0.095   1.201  -0.277  0.00  0.00    +0.000 NA
ATOM      6  C10 UNL     1      -0.127  -0.009  -0.819  0.00  0.00    +0.000 A 
ATOM      7  C11 UNL     1       0.936  -0.671  -1.388  0.00  0.00    +0.000 A 
ATOM      8  N4  UNL     1       0.459  -1.841  -1.852  0.00  0.00    +0.000 NA
ATOM      9  C12 UNL     1      -0.857  -1.945  -1.600  0.00  0.00    +0.000 A 
ATOM     10  N5  UNL     1      -1.198  -0.810  -0.965  0.00  0.00    +0.000 N 
ATOM     11 CL1  UNL     1       1.672   3.312   0.395  0.00  0.00    +0.000 Cl
ATOM     12  H7  UNL     1       3.039  -1.817  -2.435  0.00  0.00    +0.000 HD
ENDROOT
BRANCH  10  13
ATOM     13  C13 UNL     1      -2.513  -0.454  -0.488  0.00  0.00    +0.000 C 
ATOM     14  O1  UNL     1      -2.406   0.070   0.773  0.00  0.00    +0.000 OA
ATOM     15  C14 UNL     1      -3.503  -0.282   1.516  0.00  0.00    +0.000 C 
ATOM     16  C17 UNL     1      -4.205  -1.425   0.857  0.00  0.00    +0.000 C 
ATOM     17  C18 UNL     1      -3.458  -1.625  -0.422  0.00  0.00    +0.000 C 
BRANCH  15  18
ATOM     18  C15 UNL     1      -4.444   0.876   1.534  0.00  0.00    +0.000 C 
ATOM     19  O2  UNL     1      -5.515   0.750   2.166  0.00  0.00    +0.000 OA
ATOM     20  N6  UNL     1      -4.138   2.088   0.855  0.00  0.00    +0.000 N 
ATOM     21  C16 UNL     1      -5.064   3.222   0.876  0.00  0.00    +0.000 C 
ATOM     22  H11 UNL     1      -3.233   2.149   0.341  0.00  0.00    +0.000 HD
ENDBRANCH  15  18
BRANCH  17  23
ATOM     23  O3  UNL     1      -4.288  -1.700  -1.539  0.00  0.00    +0.000 OA
ATOM     24  H17 UNL     1      -3.913  -2.352  -2.204  0.00  0.00    +0.000 HD
ENDBRANCH  17  23
BRANCH  16  25
ATOM     25  O4  UNL     1      -5.557  -1.150   0.630  0.00  0.00    +0.000 OA
ATOM     26  H18 UNL     1      -5.713  -1.016  -0.340  0.00  0.00    +0.000 HD
ENDBRANCH  16  25
ENDBRANCH  10  13
BRANCH   1  27
ATOM     27  C7  UNL     1       4.576  -0.354  -2.071  0.00  0.00    +0.000 C 
BRANCH  27  31
ATOM     28  I1  UNL     1       6.113  -2.768   2.579  0.00  0.00    +0.000 I 
ATOM     29  C1  UNL     1       5.722  -1.081   1.420  0.00  0.00    +0.000 A 
ATOM     30  C2  UNL     1       5.291  -1.225   0.107  0.00  0.00    +0.000 A 
ATOM     31  C3  UNL     1       5.025  -0.138  -0.683  0.00  0.00    +0.000 A 
ATOM     32  C4  UNL     1       5.172   1.138  -0.214  0.00  0.00    +0.000 A 
ATOM     33  C5  UNL     1       5.600   1.310   1.091  0.00  0.00    +0.000 A 
ATOM     34  C6  UNL     1       5.869   0.216   1.890  0.00  0.00    +0.000 A 
ENDBRANCH  27  31
ENDBRANCH   1  27
TORSDOF 6
