REMARK  Name = ./3D_structures\o46_MMV1581030_3D.pdb
REMARK  4 active torsions:
REMARK  status: ('A' for Active; 'I' for Inactive)
REMARK    1  A    between atoms: C4_5  and  C5_6
REMARK    2  A    between atoms: C5_6  and  C6_7
REMARK    3  A    between atoms: N1_9  and  C7_10
REMARK    4  A    between atoms: N1_9  and  C13_16
REMARK                            x       y       z     vdW  Elec       q    Type
REMARK                         _______ _______ _______ _____ _____    ______ ____
ROOT
ATOM      1  C5  UNL     1       1.045   0.704  -0.889  0.00  0.00    +0.000 C 
ATOM      2  C14 UNL     1       1.538   2.083  -1.304  0.00  0.00    +0.000 C 
ATOM      3  C15 UNL     1       2.353   1.341  -2.375  0.00  0.00    +0.000 C 
ATOM      4  C16 UNL     1       1.212   0.320  -2.317  0.00  0.00    +0.000 C 
ENDROOT
BRANCH   1   9
ATOM      5 CL1  UNL     1       4.536  -2.165   3.094  0.00  0.00    +0.000 Cl
ATOM      6  C1  UNL     1       3.546  -1.363   1.889  0.00  0.00    +0.000 A 
ATOM      7  C2  UNL     1       2.637  -0.419   2.313  0.00  0.00    +0.000 A 
ATOM      8  C3  UNL     1       1.847   0.229   1.422  0.00  0.00    +0.000 A 
ATOM      9  C4  UNL     1       1.901  -0.013   0.039  0.00  0.00    +0.000 A 
ATOM     10  C17 UNL     1       2.804  -0.949  -0.361  0.00  0.00    +0.000 A 
ATOM     11  C18 UNL     1       3.624  -1.622   0.556  0.00  0.00    +0.000 A 
ENDBRANCH   1   9
BRANCH   1  12
ATOM     12  C6  UNL     1      -0.349   0.795  -0.398  0.00  0.00    +0.000 C 
ATOM     13  O1  UNL     1      -0.835   1.965  -0.263  0.00  0.00    +0.000 OA
ATOM     14  N1  UNL     1      -1.162  -0.295  -0.074  0.00  0.00    +0.000 N 
ATOM     15  C13 UNL     1      -0.663  -1.634  -0.169  0.00  0.00    +0.000 C 
BRANCH  14  16
ATOM     16  C7  UNL     1      -2.478  -0.077   0.353  0.00  0.00    +0.000 A 
ATOM     17  C8  UNL     1      -3.501   0.389  -0.459  0.00  0.00    +0.000 A 
ATOM     18  C9  UNL     1      -4.770   0.592  -0.025  0.00  0.00    +0.000 A 
ATOM     19  C10 UNL     1      -5.067   0.325   1.290  0.00  0.00    +0.000 A 
ATOM     20  C11 UNL     1      -4.099  -0.139   2.146  0.00  0.00    +0.000 A 
ATOM     21  C12 UNL     1      -2.818  -0.332   1.661  0.00  0.00    +0.000 A 
ENDBRANCH  14  16
ENDBRANCH   1  12
TORSDOF 3
