REMARK  Name = ./3D_structures\o47_MMV247764_3D.pdb
REMARK  3 active torsions:
REMARK  status: ('A' for Active; 'I' for Inactive)
REMARK    1  A    between atoms: C4_5  and  C5_6
REMARK    2  A    between atoms: C12_14  and  C14_16
REMARK    3  A    between atoms: C14_16  and  O2_18
REMARK                            x       y       z     vdW  Elec       q    Type
REMARK                         _______ _______ _______ _____ _____    ______ ____
ROOT
ATOM      1  C5  UNL     1       0.617   0.067  -0.043  0.00  0.00    +0.000 A 
ATOM      2  N1  UNL     1      -0.133   0.277  -1.139  0.00  0.00    +0.000 NA
ATOM      3  C6  UNL     1      -1.469   0.169  -1.114  0.00  0.00    +0.000 A 
ATOM      4  C7  UNL     1      -2.181   0.396  -2.268  0.00  0.00    +0.000 A 
ATOM      5  C8  UNL     1      -3.554   0.294  -2.281  0.00  0.00    +0.000 A 
ATOM      6  C9  UNL     1      -4.231  -0.036  -1.138  0.00  0.00    +0.000 A 
ATOM      7  C10 UNL     1      -3.534  -0.272   0.047  0.00  0.00    +0.000 A 
ATOM      8  C11 UNL     1      -2.160  -0.170   0.056  0.00  0.00    +0.000 A 
ATOM      9  C12 UNL     1      -1.437  -0.394   1.202  0.00  0.00    +0.000 A 
ATOM     10  C13 UNL     1      -0.042  -0.264   1.106  0.00  0.00    +0.000 A 
ATOM     11 CL1  UNL     1      -5.976  -0.182  -1.088  0.00  0.00    +0.000 Cl
ENDROOT
BRANCH   1  16
ATOM     12 BR1  UNL     1       6.725   0.674  -0.621  0.00  0.00    +0.000 Br
ATOM     13  C1  UNL     1       4.856   0.468  -0.362  0.00  0.00    +0.000 A 
ATOM     14  C2  UNL     1       4.000   0.667  -1.445  0.00  0.00    +0.000 A 
ATOM     15  C3  UNL     1       2.636   0.530  -1.309  0.00  0.00    +0.000 A 
ATOM     16  C4  UNL     1       2.071   0.188  -0.088  0.00  0.00    +0.000 A 
ATOM     17  C15 UNL     1       2.904  -0.005   0.964  0.00  0.00    +0.000 A 
ATOM     18  C16 UNL     1       4.293   0.129   0.851  0.00  0.00    +0.000 A 
ENDBRANCH   1  16
BRANCH   9  19
ATOM     19  C14 UNL     1      -2.047  -0.745   2.450  0.00  0.00    +0.000 C 
ATOM     20  O1  UNL     1      -3.231  -0.904   2.740  0.00  0.00    +0.000 OA
BRANCH  19  21
ATOM     21  O2  UNL     1      -1.177  -0.950   3.554  0.00  0.00    +0.000 OA
ATOM     22  H7  UNL     1      -1.476  -1.443   4.387  0.00  0.00    +0.000 HD
ENDBRANCH  19  21
ENDBRANCH   9  19
TORSDOF 3
