REMARK  Name = ./3D_structures\o50_MMV637413_3D.pdb
REMARK  6 active torsions:
REMARK  status: ('A' for Active; 'I' for Inactive)
REMARK    1  A    between atoms: C2_4  and  N5_20
REMARK    2  A    between atoms: N3_8  and  C6_11
REMARK    3  A    between atoms: C7_13  and  C8_14
REMARK    4  A    between atoms: C8_14  and  O2_15
REMARK    5  A    between atoms: C9_16  and  O4_19
REMARK    6  A    between atoms: C10_17  and  O3_18
REMARK                            x       y       z     vdW  Elec       q    Type
REMARK                         _______ _______ _______ _____ _____    ______ ____
ROOT
ATOM      1  F1  UNL     1       2.695   3.436  -0.984  0.00  0.00    +0.000 F 
ATOM      2  C1  UNL     1       2.734   2.139  -0.550  0.00  0.00    +0.000 A 
ATOM      3  N1  UNL     1       3.911   1.691  -0.099  0.00  0.00    +0.000 NA
ATOM      4  C2  UNL     1       4.023   0.444   0.338  0.00  0.00    +0.000 A 
ATOM      5  C3  UNL     1       2.902  -0.370   0.313  0.00  0.00    +0.000 A 
ATOM      6  N2  UNL     1       2.703  -1.653   0.680  0.00  0.00    +0.000 NA
ATOM      7  C4  UNL     1       1.407  -1.944   0.439  0.00  0.00    +0.000 A 
ATOM      8  N3  UNL     1       0.779  -0.876  -0.072  0.00  0.00    +0.000 N 
ATOM      9  C5  UNL     1       1.688   0.098  -0.155  0.00  0.00    +0.000 A 
ATOM     10  N4  UNL     1       1.629   1.363  -0.583  0.00  0.00    +0.000 NA
ENDROOT
BRANCH   8  11
ATOM     11  C6  UNL     1      -0.582  -0.805  -0.449  0.00  0.00    +0.000 C 
ATOM     12  O1  UNL     1      -1.483  -0.780   0.610  0.00  0.00    +0.000 OA
ATOM     13  C7  UNL     1      -2.707  -0.510   0.042  0.00  0.00    +0.000 C 
ATOM     14  C9  UNL     1      -2.472   0.254  -1.237  0.00  0.00    +0.000 C 
ATOM     15  C10 UNL     1      -0.953   0.472  -1.172  0.00  0.00    +0.000 C 
BRANCH  15  16
ATOM     16  O3  UNL     1      -0.389   0.554  -2.422  0.00  0.00    +0.000 OA
ATOM     17  H9  UNL     1      -0.260   1.516  -2.651  0.00  0.00    +0.000 HD
ENDBRANCH  15  16
BRANCH  14  18
ATOM     18  O4  UNL     1      -2.686  -0.630  -2.291  0.00  0.00    +0.000 OA
ATOM     19  H10 UNL     1      -2.885  -1.559  -1.978  0.00  0.00    +0.000 HD
ENDBRANCH  14  18
BRANCH  13  20
ATOM     20  C8  UNL     1      -3.563   0.376   0.933  0.00  0.00    +0.000 C 
BRANCH  20  21
ATOM     21  O2  UNL     1      -3.812  -0.207   2.160  0.00  0.00    +0.000 OA
ATOM     22  H6  UNL     1      -4.711  -0.570   2.227  0.00  0.00    +0.000 HD
ENDBRANCH  20  21
ENDBRANCH  13  20
ENDBRANCH   8  11
BRANCH   4  23
ATOM     23  N5  UNL     1       5.231  -0.114   0.833  0.00  0.00    +0.000 N 
ATOM     24  H11 UNL     1       5.748  -0.828   0.244  0.00  0.00    +0.000 HD
ATOM     25  H12 UNL     1       5.638   0.143   1.752  0.00  0.00    +0.000 HD
ENDBRANCH   4  23
TORSDOF 6
