REMARK  Name = ./3D_structures\o53_MMV1580498_3D.pdb
REMARK  8 active torsions:
REMARK  status: ('A' for Active; 'I' for Inactive)
REMARK    1  A    between atoms: C1_2  and  C2_5
REMARK    2  A    between atoms: C4_8  and  N2_9
REMARK    3  A    between atoms: N2_9  and  C5_10
REMARK    4  A    between atoms: C7_13  and  C8_14
REMARK    5  A    between atoms: C11_17  and  C12_18
REMARK    6  A    between atoms: C15_21  and  C16_22
REMARK    7  A    between atoms: C16_22  and  C17_23
REMARK    8  A    between atoms: C17_23  and  O2_25
REMARK                            x       y       z     vdW  Elec       q    Type
REMARK                         _______ _______ _______ _____ _____    ______ ____
ROOT
ATOM      1  C5  UNL     1       4.230   0.450  -0.417  0.00  0.00    +0.000 A 
ATOM      2  C6  UNL     1       3.677   1.625   0.092  0.00  0.00    +0.000 A 
ATOM      3  N3  UNL     1       2.425   1.661   0.520  0.00  0.00    +0.000 NA
ATOM      4  C7  UNL     1       1.689   0.546   0.500  0.00  0.00    +0.000 A 
ATOM      5  C22 UNL     1       2.294  -0.666   0.050  0.00  0.00    +0.000 A 
ATOM      6  C23 UNL     1       3.508  -0.755  -0.437  0.00  0.00    +0.000 A 
ENDROOT
BRANCH   4   7
ATOM      7  C8  UNL     1       0.225   0.448   0.700  0.00  0.00    +0.000 A 
ATOM      8  C9  UNL     1      -0.376  -0.157  -0.435  0.00  0.00    +0.000 A 
ATOM      9  C10 UNL     1      -1.605  -0.586  -0.500  0.00  0.00    +0.000 A 
ATOM     10  C11 UNL     1      -2.417  -0.419   0.624  0.00  0.00    +0.000 A 
ATOM     11  C20 UNL     1      -1.816   0.179   1.752  0.00  0.00    +0.000 A 
ATOM     12  C21 UNL     1      -0.494   0.617   1.790  0.00  0.00    +0.000 A 
BRANCH  10  13
ATOM     13  C12 UNL     1      -3.827  -0.727   0.605  0.00  0.00    +0.000 C 
ATOM     14  C13 UNL     1      -4.472   0.688   0.684  0.00  0.00    +0.000 C 
ATOM     15  C14 UNL     1      -5.903   0.664   0.335  0.00  0.00    +0.000 C 
ATOM     16  C15 UNL     1      -6.094   0.090  -1.054  0.00  0.00    +0.000 C 
ATOM     17  C18 UNL     1      -5.743  -1.441  -0.782  0.00  0.00    +0.000 C 
ATOM     18  C19 UNL     1      -4.233  -1.442  -0.626  0.00  0.00    +0.000 C 
BRANCH  16  19
ATOM     19  C16 UNL     1      -7.557   0.091  -1.416  0.00  0.00    +0.000 C 
BRANCH  19  20
ATOM     20  C17 UNL     1      -8.327   1.099  -0.670  0.00  0.00    +0.000 C 
ATOM     21  O1  UNL     1      -9.146   0.565   0.214  0.00  0.00    +0.000 OA
BRANCH  20  22
ATOM     22  O2  UNL     1      -8.284   2.433  -0.803  0.00  0.00    +0.000 OA
ATOM     23  H14 UNL     1      -8.686   3.089  -0.122  0.00  0.00    +0.000 HD
ENDBRANCH  20  22
ENDBRANCH  19  20
ENDBRANCH  16  19
ENDBRANCH  10  13
ENDBRANCH   4   7
BRANCH   1  24
ATOM     24  N2  UNL     1       5.372   0.389  -1.203  0.00  0.00    +0.000 N 
ATOM     25  H2  UNL     1       5.250   0.545  -2.212  0.00  0.00    +0.000 HD
BRANCH  24  29
ATOM     26  C2  UNL     1       8.896  -0.251   0.608  0.00  0.00    +0.000 A 
ATOM     27  N1  UNL     1       8.553   1.029   0.346  0.00  0.00    +0.000 NA
ATOM     28  C3  UNL     1       7.348   1.286  -0.236  0.00  0.00    +0.000 A 
ATOM     29  C4  UNL     1       6.552   0.247  -0.551  0.00  0.00    +0.000 A 
ATOM     30  C24 UNL     1       6.877  -1.097  -0.281  0.00  0.00    +0.000 A 
ATOM     31  C25 UNL     1       8.086  -1.341   0.316  0.00  0.00    +0.000 A 
BRANCH  26  33
ATOM     32  F1  UNL     1      10.879   0.174   1.857  0.00  0.00    +0.000 F 
ATOM     33  C1  UNL     1      10.348  -0.556   0.912  0.00  0.00    +0.000 C 
ATOM     34  F2  UNL     1      10.451  -1.916   0.992  0.00  0.00    +0.000 F 
ATOM     35  F3  UNL     1      10.882  -0.220  -0.398  0.00  0.00    +0.000 F 
ENDBRANCH  26  33
ENDBRANCH  24  29
ENDBRANCH   1  24
TORSDOF 8
