REMARK  Name = ./3D_structures\o56_MMV1782222_3D.pdb
REMARK  6 active torsions:
REMARK  status: ('A' for Active; 'I' for Inactive)
REMARK    1  A    between atoms: C1_1  and  N1_2
REMARK    2  A    between atoms: N2_10  and  C24_32
REMARK    3  A    between atoms: N3_15  and  C11_16
REMARK    4  A    between atoms: C11_16  and  C12_17
REMARK    5  A    between atoms: C15_20  and  C16_21
REMARK    6  A    between atoms: C16_21  and  N4_22
REMARK                            x       y       z     vdW  Elec       q    Type
REMARK                         _______ _______ _______ _____ _____    ______ ____
ROOT
ATOM      1  C1  UNL     1      -1.972   3.172  -0.263  0.00  0.00    +0.000 C 
ATOM      2  N1  UNL     1      -2.630   2.038   0.303  0.00  0.00    +0.000 N 
ATOM      3  C2  UNL     1      -4.064   2.001   0.142  0.00  0.00    +0.000 A 
ATOM      4  C3  UNL     1      -4.597   3.256  -0.028  0.00  0.00    +0.000 A 
ATOM      5  C4  UNL     1      -5.964   3.462  -0.197  0.00  0.00    +0.000 A 
ATOM      6  C5  UNL     1      -6.800   2.362  -0.191  0.00  0.00    +0.000 A 
ATOM      7 CL1  UNL     1      -8.541   2.579  -0.401  0.00  0.00    +0.000 Cl
ATOM      8  C6  UNL     1      -6.261   1.108  -0.020  0.00  0.00    +0.000 A 
ATOM      9  C7  UNL     1      -4.901   0.905   0.148  0.00  0.00    +0.000 A 
ATOM     10  N2  UNL     1      -4.542  -0.460   0.305  0.00  0.00    +0.000 N 
ATOM     11  C8  UNL     1      -3.308  -0.983   0.847  0.00  0.00    +0.000 C 
ATOM     12  O1  UNL     1      -3.271  -2.207   1.027  0.00  0.00    +0.000 OA
ATOM     13  C9  UNL     1      -2.094  -0.265   1.213  0.00  0.00    +0.000 A 
ATOM     14  C10 UNL     1      -0.992  -0.738   1.872  0.00  0.00    +0.000 A 
ATOM     15  N3  UNL     1      -0.075   0.233   2.032  0.00  0.00    +0.000 N 
ATOM     16  N5  UNL     1      -0.603   1.330   1.467  0.00  0.00    +0.000 NA
ATOM     17  C23 UNL     1      -1.818   1.070   0.963  0.00  0.00    +0.000 A 
ENDROOT
BRANCH  10  18
ATOM     18  C24 UNL     1      -5.530  -1.375  -0.131  0.00  0.00    +0.000 A 
ATOM     19  C25 UNL     1      -5.912  -1.425  -1.454  0.00  0.00    +0.000 A 
ATOM     20  C26 UNL     1      -6.871  -2.315  -1.861  0.00  0.00    +0.000 A 
ATOM     21  C27 UNL     1      -7.458  -3.170  -0.928  0.00  0.00    +0.000 A 
ATOM     22  C28 UNL     1      -7.074  -3.113   0.384  0.00  0.00    +0.000 A 
ATOM     23  C29 UNL     1      -6.109  -2.219   0.794  0.00  0.00    +0.000 A 
ENDBRANCH  10  18
BRANCH  15  24
ATOM     24  C11 UNL     1       1.223   0.129   2.681  0.00  0.00    +0.000 C 
BRANCH  24  25
ATOM     25  C12 UNL     1       2.238  -0.248   1.676  0.00  0.00    +0.000 A 
ATOM     26  C13 UNL     1       2.585  -1.544   1.368  0.00  0.00    +0.000 A 
ATOM     27  C14 UNL     1       3.544  -1.831   0.414  0.00  0.00    +0.000 A 
ATOM     28  C15 UNL     1       4.152  -0.774  -0.228  0.00  0.00    +0.000 A 
ATOM     29  C21 UNL     1       3.818   0.533   0.067  0.00  0.00    +0.000 A 
ATOM     30  C22 UNL     1       2.870   0.801   1.009  0.00  0.00    +0.000 A 
BRANCH  28  31
ATOM     31  C16 UNL     1       5.182  -1.072  -1.257  0.00  0.00    +0.000 C 
BRANCH  31  32
ATOM     32  N4  UNL     1       6.167  -0.013  -1.367  0.00  0.00    +0.000 NA
ATOM     33  C17 UNL     1       6.902   0.200  -0.153  0.00  0.00    +0.000 C 
ATOM     34  C18 UNL     1       8.200   0.941  -0.447  0.00  0.00    +0.000 C 
ATOM     35  O2  UNL     1       9.079   0.097  -1.092  0.00  0.00    +0.000 OA
ATOM     36  C19 UNL     1       8.413  -0.898  -1.779  0.00  0.00    +0.000 C 
ATOM     37  C20 UNL     1       7.119  -0.404  -2.388  0.00  0.00    +0.000 C 
ENDBRANCH  31  32
ENDBRANCH  28  31
ENDBRANCH  24  25
ENDBRANCH  15  24
TORSDOF 5
