REMARK  Name = ./3D_structures\o57_MMV690706_3D.pdb
REMARK  7 active torsions:
REMARK  status: ('A' for Active; 'I' for Inactive)
REMARK    1  A    between atoms: O1_1  and  N1_2
REMARK    2  A    between atoms: C1_3  and  C2_5
REMARK    3  A    between atoms: C2_5  and  C3_6
REMARK    4  A    between atoms: C3_6  and  S1_7
REMARK    5  A    between atoms: S1_7  and  C4_10
REMARK    6  A    between atoms: C7_13  and  O5_14
REMARK    7  A    between atoms: O5_14  and  C8_15
REMARK                            x       y       z     vdW  Elec       q    Type
REMARK                         _______ _______ _______ _____ _____    ______ ____
ROOT
ATOM      1  S1  UNL     1      -0.922   0.221   0.540  0.00  0.00    +0.000 S 
ATOM      2  O3  UNL     1      -1.138   1.690   0.815  0.00  0.00    +0.000 OA
ATOM      3  O4  UNL     1      -0.933  -0.473   1.865  0.00  0.00    +0.000 OA
ENDROOT
BRANCH   1   4
ATOM      4  C4  UNL     1       0.654   0.026  -0.151  0.00  0.00    +0.000 A 
ATOM      5  C5  UNL     1       1.332  -1.157   0.059  0.00  0.00    +0.000 A 
ATOM      6  C6  UNL     1       2.585  -1.422  -0.440  0.00  0.00    +0.000 A 
ATOM      7  C7  UNL     1       3.198  -0.449  -1.195  0.00  0.00    +0.000 A 
ATOM      8  C14 UNL     1       2.546   0.743  -1.423  0.00  0.00    +0.000 A 
ATOM      9  C15 UNL     1       1.288   0.987  -0.911  0.00  0.00    +0.000 A 
BRANCH   7  10
ATOM     10  O5  UNL     1       4.462  -0.711  -1.701  0.00  0.00    +0.000 OA
BRANCH  10  11
ATOM     11  C8  UNL     1       5.589  -0.384  -0.965  0.00  0.00    +0.000 A 
ATOM     12  C9  UNL     1       6.848  -0.640  -1.459  0.00  0.00    +0.000 A 
ATOM     13  C10 UNL     1       7.966  -0.322  -0.743  0.00  0.00    +0.000 A 
ATOM     14  C11 UNL     1       7.840   0.267   0.501  0.00  0.00    +0.000 A 
ATOM     15 CL1  UNL     1       9.237   0.701   1.476  0.00  0.00    +0.000 Cl
ATOM     16  C12 UNL     1       6.591   0.531   1.014  0.00  0.00    +0.000 A 
ATOM     17  C13 UNL     1       5.471   0.204   0.277  0.00  0.00    +0.000 A 
ENDBRANCH  10  11
ENDBRANCH   7  10
ENDBRANCH   1   4
BRANCH   1  18
ATOM     18  C3  UNL     1      -2.208  -0.321  -0.528  0.00  0.00    +0.000 C 
BRANCH  18  19
ATOM     19  C2  UNL     1      -3.558  -0.144   0.084  0.00  0.00    +0.000 C 
ATOM     20  C16 UNL     1      -3.696  -1.022   1.307  0.00  0.00    +0.000 C 
ATOM     21  C17 UNL     1      -5.136  -1.376   1.478  0.00  0.00    +0.000 C 
ATOM     22  O6  UNL     1      -5.982  -0.340   1.085  0.00  0.00    +0.000 OA
ATOM     23  C18 UNL     1      -5.952  -0.160  -0.303  0.00  0.00    +0.000 C 
ATOM     24  C19 UNL     1      -4.635  -0.636  -0.882  0.00  0.00    +0.000 C 
BRANCH  19  26
ATOM     25  N1  UNL     1      -3.850   2.272  -0.616  0.00  0.00    +0.000 N 
ATOM     26  C1  UNL     1      -3.842   1.286   0.409  0.00  0.00    +0.000 C 
ATOM     27  O2  UNL     1      -4.084   1.684   1.578  0.00  0.00    +0.000 OA
ATOM     28  H2  UNL     1      -3.646   1.929  -1.598  0.00  0.00    +0.000 HD
BRANCH  25  29
ATOM     29  O1  UNL     1      -4.105   3.582  -0.358  0.00  0.00    +0.000 OA
ATOM     30  H1  UNL     1      -3.364   3.880   0.252  0.00  0.00    +0.000 HD
ENDBRANCH  25  29
ENDBRANCH  19  26
ENDBRANCH  18  19
ENDBRANCH   1  18
TORSDOF 7
