REMARK  Name = ./3D_structures\o58_MMV1782220_3D.pdb
REMARK  10 active torsions:
REMARK  status: ('A' for Active; 'I' for Inactive)
REMARK    1  A    between atoms: C1_1  and  C2_2
REMARK    2  A    between atoms: C2_2  and  C3_3
REMARK    3  A    between atoms: C2_2  and  C4_4
REMARK    4  A    between atoms: C4_4  and  C5_5
REMARK    5  A    between atoms: C5_5  and  N1_6
REMARK    6  A    between atoms: C13_14  and  O6_35
REMARK    7  A    between atoms: C14_15  and  C16_18
REMARK    8  A    between atoms: C19_25  and  N3_26
REMARK    9  A    between atoms: N3_26  and  S2_27
REMARK   10  A    between atoms: S2_27  and  C20_30
REMARK                            x       y       z     vdW  Elec       q    Type
REMARK                         _______ _______ _______ _____ _____    ______ ____
ROOT
ATOM      1  N1  UNL     1      -2.447  -0.145   0.074  0.00  0.00    +0.000 N 
ATOM      2  C6  UNL     1      -2.908  -1.059  -0.907  0.00  0.00    +0.000 C 
ATOM      3  C7  UNL     1      -4.265  -0.575  -1.424  0.00  0.00    +0.000 C 
ATOM      4  C8  UNL     1      -4.642  -1.438  -2.606  0.00  0.00    +0.000 C 
ATOM      5  C9  UNL     1      -3.933  -0.857  -3.826  0.00  0.00    +0.000 C 
ATOM      6  C10 UNL     1      -2.852  -0.049  -3.117  0.00  0.00    +0.000 C 
ATOM      7  C11 UNL     1      -3.770   0.691  -2.126  0.00  0.00    +0.000 C 
ATOM      8  C12 UNL     1      -2.129  -0.984  -2.206  0.00  0.00    +0.000 C 
ATOM      9  C13 UNL     1      -0.709  -0.716  -2.009  0.00  0.00    +0.000 C 
ATOM     10  C14 UNL     1      -0.148  -0.214  -0.907  0.00  0.00    +0.000 C 
ATOM     11  C15 UNL     1      -1.016   0.088   0.180  0.00  0.00    +0.000 C 
ATOM     12  O1  UNL     1      -0.583   0.567   1.267  0.00  0.00    +0.000 OA
ENDROOT
BRANCH  10  13
ATOM     13  C16 UNL     1       1.328  -0.014  -0.905  0.00  0.00    +0.000 C 
ATOM     14  N2  UNL     1       1.969  -0.344  -1.982  0.00  0.00    +0.000 NA
ATOM     15  S1  UNL     1       3.648  -0.187  -2.163  0.00  0.00    +0.000 S 
ATOM     16  O2  UNL     1       4.029   0.660  -3.346  0.00  0.00    +0.000 OA
ATOM     17  O3  UNL     1       4.312  -1.547  -2.338  0.00  0.00    +0.000 OA
ATOM     18  C17 UNL     1       4.272   0.470  -0.678  0.00  0.00    +0.000 A 
ATOM     19  C18 UNL     1       5.611   0.696  -0.562  0.00  0.00    +0.000 A 
ATOM     20  C19 UNL     1       6.101   1.208   0.592  0.00  0.00    +0.000 A 
ATOM     21  C21 UNL     1       5.251   1.500   1.646  0.00  0.00    +0.000 A 
ATOM     22  C22 UNL     1       3.898   1.260   1.495  0.00  0.00    +0.000 A 
ATOM     23  C23 UNL     1       3.401   0.739   0.320  0.00  0.00    +0.000 A 
ATOM     24  N4  UNL     1       1.988   0.511   0.224  0.00  0.00    +0.000 N 
ATOM     25  H29 UNL     1       1.437   0.773   1.095  0.00  0.00    +0.000 HD
BRANCH  20  26
ATOM     26  N3  UNL     1       7.477   1.463   0.762  0.00  0.00    +0.000 N 
ATOM     27  H23 UNL     1       7.725   2.407   1.184  0.00  0.00    +0.000 HD
BRANCH  26  28
ATOM     28  S2  UNL     1       8.640   0.306   0.307  0.00  0.00    +0.000 S 
ATOM     29  O4  UNL     1       8.522   0.000  -1.137  0.00  0.00    +0.000 OA
ATOM     30  O5  UNL     1      10.038   0.818   0.550  0.00  0.00    +0.000 OA
ATOM     31  C20 UNL     1       8.368  -1.165   1.282  0.00  0.00    +0.000 C 
ENDBRANCH  26  28
ENDBRANCH  20  26
ENDBRANCH  10  13
BRANCH   9  32
ATOM     32  O6  UNL     1       0.131  -1.013  -3.072  0.00  0.00    +0.000 OA
ATOM     33  H30 UNL     1       0.168  -0.313  -3.816  0.00  0.00    +0.000 HD
ENDBRANCH   9  32
BRANCH   1  34
ATOM     34  C5  UNL     1      -3.297   0.580   1.010  0.00  0.00    +0.000 C 
BRANCH  34  35
ATOM     35  C4  UNL     1      -3.505  -0.232   2.281  0.00  0.00    +0.000 C 
BRANCH  35  37
ATOM     36  C1  UNL     1      -5.748   0.786   2.735  0.00  0.00    +0.000 C 
ATOM     37  C2  UNL     1      -4.375   0.481   3.265  0.00  0.00    +0.000 C 
ATOM     38  C3  UNL     1      -4.543  -0.401   4.483  0.00  0.00    +0.000 C 
ENDBRANCH  35  37
ENDBRANCH  34  35
ENDBRANCH   1  34
TORSDOF 7
