REMARK  Name = ./3D_structures\o59_MMV1782213_3D.pdb
REMARK  8 active torsions:
REMARK  status: ('A' for Active; 'I' for Inactive)
REMARK    1  A    between atoms: O1_1  and  C1_2
REMARK    2  A    between atoms: C1_2  and  C2_4
REMARK    3  A    between atoms: C5_7  and  N1_8
REMARK    4  A    between atoms: C6_9  and  C7_11
REMARK    5  A    between atoms: C7_11  and  S1_12
REMARK    6  A    between atoms: S1_12  and  C8_13
REMARK    7  A    between atoms: N4_18  and  C10_19
REMARK    8  A    between atoms: C13_22  and  C14_23
REMARK                            x       y       z     vdW  Elec       q    Type
REMARK                         _______ _______ _______ _____ _____    ______ ____
ROOT
ATOM      1  C8  UNL     1       0.284  -1.662  -0.224  0.00  0.00    +0.000 A 
ATOM      2  N2  UNL     1       1.259  -2.336   0.394  0.00  0.00    +0.000 NA
ATOM      3  N3  UNL     1       0.917  -2.411   1.667  0.00  0.00    +0.000 NA
ATOM      4  C9  UNL     1      -0.260  -1.793   1.860  0.00  0.00    +0.000 A 
ATOM      5 BR1  UNL     1      -1.227  -1.592   3.491  0.00  0.00    +0.000 Br
ATOM      6  N4  UNL     1      -0.641  -1.328   0.655  0.00  0.00    +0.000 N 
ENDROOT
BRANCH   6   7
ATOM      7  C10 UNL     1      -1.868  -0.600   0.449  0.00  0.00    +0.000 A 
ATOM      8  C11 UNL     1      -1.876   0.738   0.254  0.00  0.00    +0.000 A 
ATOM      9  C12 UNL     1      -3.054   1.382   0.065  0.00  0.00    +0.000 A 
ATOM     10  C13 UNL     1      -4.299   0.727   0.059  0.00  0.00    +0.000 A 
ATOM     11  C17 UNL     1      -4.259  -0.629   0.259  0.00  0.00    +0.000 A 
ATOM     12  C18 UNL     1      -5.439  -1.332   0.262  0.00  0.00    +0.000 A 
ATOM     13  C19 UNL     1      -5.444  -2.712   0.459  0.00  0.00    +0.000 A 
ATOM     14  C20 UNL     1      -4.256  -3.341   0.648  0.00  0.00    +0.000 A 
ATOM     15  C21 UNL     1      -3.032  -2.656   0.650  0.00  0.00    +0.000 A 
ATOM     16  C22 UNL     1      -3.045  -1.301   0.455  0.00  0.00    +0.000 A 
BRANCH  10  17
ATOM     17  C14 UNL     1      -5.561   1.410  -0.133  0.00  0.00    +0.000 C 
ATOM     18  C15 UNL     1      -5.801   2.800  -0.480  0.00  0.00    +0.000 C 
ATOM     19  C16 UNL     1      -6.355   1.601  -1.305  0.00  0.00    +0.000 C 
ENDBRANCH  10  17
ENDBRANCH   6   7
BRANCH   1  20
ATOM     20  S1  UNL     1       0.270  -1.292  -1.965  0.00  0.00    +0.000 S 
BRANCH  20  21
ATOM     21  C7  UNL     1       1.070   0.264  -2.348  0.00  0.00    +0.000 C 
BRANCH  21  23
ATOM     22  N1  UNL     1       3.074   0.606  -0.816  0.00  0.00    +0.000 N 
ATOM     23  C6  UNL     1       2.543   0.230  -2.062  0.00  0.00    +0.000 C 
ATOM     24  O3  UNL     1       3.305  -0.147  -2.969  0.00  0.00    +0.000 OA
ATOM     25  H4  UNL     1       2.360   0.912  -0.105  0.00  0.00    +0.000 HD
BRANCH  22  29
ATOM     26  C2  UNL     1       7.091   0.710   0.548  0.00  0.00    +0.000 A 
ATOM     27  C3  UNL     1       6.797   0.297  -0.726  0.00  0.00    +0.000 A 
ATOM     28  C4  UNL     1       5.485   0.247  -1.218  0.00  0.00    +0.000 A 
ATOM     29  C5  UNL     1       4.428   0.620  -0.421  0.00  0.00    +0.000 A 
ATOM     30  C23 UNL     1       4.750   1.034   0.863  0.00  0.00    +0.000 A 
ATOM     31 CL1  UNL     1       3.430   1.524   1.929  0.00  0.00    +0.000 Cl
ATOM     32  C24 UNL     1       6.033   1.083   1.346  0.00  0.00    +0.000 A 
BRANCH  26  33
ATOM     33  C1  UNL     1       8.457   0.753   1.036  0.00  0.00    +0.000 C 
ATOM     34  O2  UNL     1       8.665   1.145   2.223  0.00  0.00    +0.000 OA
BRANCH  33  35
ATOM     35  O1  UNL     1       9.536   0.390   0.276  0.00  0.00    +0.000 OA
ATOM     36  H1  UNL     1      10.509   0.524   0.587  0.00  0.00    +0.000 HD
ENDBRANCH  33  35
ENDBRANCH  26  33
ENDBRANCH  22  29
ENDBRANCH  21  23
ENDBRANCH  20  21
ENDBRANCH   1  20
TORSDOF 8
