REMARK  Name = ./3D_structures\o61_MMV1782211_3D.pdb
REMARK  6 active torsions:
REMARK  status: ('A' for Active; 'I' for Inactive)
REMARK    1  A    between atoms: C1_1  and  C2_2
REMARK    2  A    between atoms: C2_2  and  N1_3
REMARK    3  A    between atoms: C2_2  and  C22_27
REMARK    4  A    between atoms: C3_4  and  C4_6
REMARK    5  A    between atoms: C8_10  and  C10_12
REMARK    6  A    between atoms: C12_15  and  C13_17
REMARK                            x       y       z     vdW  Elec       q    Type
REMARK                         _______ _______ _______ _____ _____    ______ ____
ROOT
ATOM      1  C4  UNL     1      -1.982  -0.464   1.167  0.00  0.00    +0.000 A 
ATOM      2  C5  UNL     1      -2.578  -1.393   1.980  0.00  0.00    +0.000 A 
ATOM      3  C6  UNL     1      -1.815  -2.391   2.599  0.00  0.00    +0.000 A 
ATOM      4  C7  UNL     1      -0.457  -2.418   2.372  0.00  0.00    +0.000 A 
ATOM      5  C8  UNL     1       0.168  -1.501   1.563  0.00  0.00    +0.000 A 
ATOM      6  C9  UNL     1      -0.611  -0.535   0.972  0.00  0.00    +0.000 A 
ENDROOT
BRANCH   5   7
ATOM      7  C10 UNL     1       1.627  -1.542   1.329  0.00  0.00    +0.000 A 
ATOM      8  C11 UNL     1       2.515  -2.448   1.855  0.00  0.00    +0.000 A 
ATOM      9  N2  UNL     1       3.735  -2.154   1.410  0.00  0.00    +0.000 N 
ATOM     10  C12 UNL     1       3.641  -1.082   0.614  0.00  0.00    +0.000 A 
ATOM     11  N3  UNL     1       2.350  -0.711   0.567  0.00  0.00    +0.000 NA
ATOM     12  H11 UNL     1       4.642  -2.633   1.608  0.00  0.00    +0.000 HD
BRANCH  10  13
ATOM     13  C13 UNL     1       4.761  -0.422  -0.090  0.00  0.00    +0.000 A 
ATOM     14  C14 UNL     1       6.051  -0.870   0.015  0.00  0.00    +0.000 A 
ATOM     15  C15 UNL     1       7.105  -0.239  -0.655  0.00  0.00    +0.000 A 
ATOM     16  C16 UNL     1       8.405  -0.684  -0.554  0.00  0.00    +0.000 A 
ATOM     17  C17 UNL     1       9.454  -0.057  -1.221  0.00  0.00    +0.000 A 
ATOM     18  C18 UNL     1       9.174   1.043  -2.004  0.00  0.00    +0.000 A 
ATOM     19  C19 UNL     1       7.871   1.495  -2.110  0.00  0.00    +0.000 A 
ATOM     20  C20 UNL     1       6.835   0.861  -1.441  0.00  0.00    +0.000 A 
ATOM     21  C21 UNL     1       5.525   1.284  -1.524  0.00  0.00    +0.000 A 
ATOM     22  N4  UNL     1       4.516   0.650  -0.859  0.00  0.00    +0.000 NA
ENDBRANCH  10  13
ENDBRANCH   5   7
BRANCH   1  24
ATOM     23  N1  UNL     1      -4.179   0.711   0.674  0.00  0.00    +0.000 N 
ATOM     24  C3  UNL     1      -2.798   0.559   0.539  0.00  0.00    +0.000 C 
ATOM     25  O1  UNL     1      -2.199   1.399  -0.207  0.00  0.00    +0.000 OA
ATOM     26  H5  UNL     1      -4.715   0.050   1.273  0.00  0.00    +0.000 HD
BRANCH  23  28
ATOM     27  C1  UNL     1      -5.492   2.638   1.152  0.00  0.00    +0.000 C 
ATOM     28  C2  UNL     1      -4.948   1.762   0.017  0.00  0.00    +0.000 C 
BRANCH  28  29
ATOM     29  C22 UNL     1      -6.059   1.190  -0.771  0.00  0.00    +0.000 A 
ATOM     30  C23 UNL     1      -6.855   0.199  -0.239  0.00  0.00    +0.000 A 
ATOM     31  C24 UNL     1      -7.879  -0.296  -1.025  0.00  0.00    +0.000 A 
ATOM     32  C25 UNL     1      -8.110   0.176  -2.303  0.00  0.00    +0.000 A 
ATOM     33  F1  UNL     1      -9.130  -0.340  -3.046  0.00  0.00    +0.000 F 
ATOM     34  C26 UNL     1      -7.321   1.160  -2.834  0.00  0.00    +0.000 A 
ATOM     35  C27 UNL     1      -6.287   1.663  -2.046  0.00  0.00    +0.000 A 
ENDBRANCH  28  29
ENDBRANCH  23  28
ENDBRANCH   1  24
TORSDOF 5
