REMARK  Name = ./3D_structures\o62_MMV1782210_3D.pdb
REMARK  5 active torsions:
REMARK  status: ('A' for Active; 'I' for Inactive)
REMARK    1  A    between atoms: N4_8  and  C5_9
REMARK    2  A    between atoms: C8_12  and  C9_13
REMARK    3  A    between atoms: C8_12  and  C10_15
REMARK    4  A    between atoms: C9_13  and  O1_14
REMARK    5  A    between atoms: C10_15  and  O2_16
REMARK                            x       y       z     vdW  Elec       q    Type
REMARK                         _______ _______ _______ _____ _____    ______ ____
ROOT
ATOM      1  N1  UNL     1       4.494  -2.108  -0.816  0.00  0.00    +0.000 N 
ATOM      2  C1  UNL     1       3.818  -0.895  -0.539  0.00  0.00    +0.000 A 
ATOM      3  N2  UNL     1       2.619  -0.885   0.072  0.00  0.00    +0.000 NA
ATOM      4  C2  UNL     1       1.944   0.248   0.352  0.00  0.00    +0.000 A 
ATOM      5  C3  UNL     1       2.475   1.466   0.012  0.00  0.00    +0.000 A 
ATOM      6  N3  UNL     1       1.599   2.413   0.405  0.00  0.00    +0.000 NA
ATOM      7  C4  UNL     1       0.528   1.828   0.985  0.00  0.00    +0.000 A 
ATOM      8  N4  UNL     1       0.756   0.503   0.944  0.00  0.00    +0.000 N 
ATOM      9  C11 UNL     1       3.704   1.459  -0.615  0.00  0.00    +0.000 A 
ATOM     10  O3  UNL     1       4.217   2.555  -0.938  0.00  0.00    +0.000 OA
ATOM     11  N5  UNL     1       4.351   0.312  -0.879  0.00  0.00    +0.000 N 
ATOM     12  H1  UNL     1       5.424  -2.305  -0.428  0.00  0.00    +0.000 HD
ATOM     13  H2  UNL     1       4.032  -2.804  -1.424  0.00  0.00    +0.000 HD
ATOM     14  H13 UNL     1       5.278   0.267  -1.350  0.00  0.00    +0.000 HD
ENDROOT
BRANCH   8  15
ATOM     15  C5  UNL     1      -0.076  -0.546   1.428  0.00  0.00    +0.000 C 
ATOM     16  C6  UNL     1      -1.308  -0.630   0.953  0.00  0.00    +0.000 C 
ATOM     17  C7  UNL     1      -2.612  -1.436   1.032  0.00  0.00    +0.000 C 
ATOM     18  C8  UNL     1      -2.475  -0.271   0.148  0.00  0.00    +0.000 C 
BRANCH  18  19
ATOM     19  C9  UNL     1      -2.458  -0.562  -1.347  0.00  0.00    +0.000 C 
BRANCH  19  20
ATOM     20  O1  UNL     1      -3.677  -0.125  -1.865  0.00  0.00    +0.000 OA
ATOM     21  H9  UNL     1      -4.413  -0.745  -1.622  0.00  0.00    +0.000 HD
ENDBRANCH  19  20
ENDBRANCH  18  19
BRANCH  18  22
ATOM     22  C10 UNL     1      -3.207   0.981   0.581  0.00  0.00    +0.000 C 
BRANCH  22  23
ATOM     23  O2  UNL     1      -4.276   1.201  -0.256  0.00  0.00    +0.000 OA
ATOM     24  H12 UNL     1      -5.000   1.660   0.261  0.00  0.00    +0.000 HD
ENDBRANCH  22  23
ENDBRANCH  18  22
ENDBRANCH   8  15
TORSDOF 5
