REMARK  Name = ./3D_structures\o65_MMV1782353_3D.pdb
REMARK  17 active torsions:
REMARK  status: ('A' for Active; 'I' for Inactive)
REMARK    1  A    between atoms: C1_1  and  C2_2
REMARK    2  A    between atoms: C2_2  and  C3_3
REMARK    3  A    between atoms: C2_2  and  C4_4
REMARK    4  A    between atoms: C2_2  and  N1_5
REMARK    5  A    between atoms: C5_6  and  C6_8
REMARK    6  A    between atoms: N2_10  and  C8_11
REMARK    7  A    between atoms: C8_11  and  C9_12
REMARK    8  A    between atoms: N4_23  and  C18_24
REMARK    9  A    between atoms: C18_24  and  C19_25
REMARK   10  A    between atoms: C19_25  and  O3_26
REMARK   11  A    between atoms: C19_25  and  C20_27
REMARK   12  A    between atoms: C20_27  and  C21_28
REMARK   13  A    between atoms: C21_28  and  C22_29
REMARK   14  A    between atoms: C21_28  and  C29_36
REMARK   15  A    between atoms: C22_29  and  C23_30
REMARK   16  A    between atoms: N5_38  and  C30_39
REMARK   17  A    between atoms: C31_40  and  O5_41
REMARK                            x       y       z     vdW  Elec       q    Type
REMARK                         _______ _______ _______ _____ _____    ______ ____
ROOT
ATOM      1  C19 UNL     1       0.814   0.292  -0.012  0.00  0.00    +0.000 C 
ENDROOT
BRANCH   1   2
ATOM      2  O3  UNL     1       0.231   1.388  -0.636  0.00  0.00    +0.000 OA
ATOM      3  H27 UNL     1       0.238   1.184  -1.621  0.00  0.00    +0.000 HD
ENDBRANCH   1   2
BRANCH   1   4
ATOM      4  C18 UNL     1      -0.178  -0.838   0.045  0.00  0.00    +0.000 C 
BRANCH   4  10
ATOM      5  C6  UNL     1      -2.572  -1.184   0.161  0.00  0.00    +0.000 C 
ATOM      6  C7  UNL     1      -3.846  -0.502   0.695  0.00  0.00    +0.000 C 
ATOM      7  N2  UNL     1      -3.798  -0.386   2.100  0.00  0.00    +0.000 NA
ATOM      8  C16 UNL     1      -2.642  -1.024   2.671  0.00  0.00    +0.000 C 
ATOM      9  C17 UNL     1      -1.397  -0.347   2.066  0.00  0.00    +0.000 C 
ATOM     10  N4  UNL     1      -1.416  -0.547   0.663  0.00  0.00    +0.000 NA
BRANCH   5  12
ATOM     11  N1  UNL     1      -3.705  -2.059  -1.894  0.00  0.00    +0.000 N 
ATOM     12  C5  UNL     1      -2.688  -1.208  -1.333  0.00  0.00    +0.000 C 
ATOM     13  O1  UNL     1      -1.998  -0.569  -2.136  0.00  0.00    +0.000 OA
ATOM     14  H10 UNL     1      -4.282  -2.596  -1.193  0.00  0.00    +0.000 HD
BRANCH  11  16
ATOM     15  C1  UNL     1      -5.063  -3.187  -3.505  0.00  0.00    +0.000 C 
ATOM     16  C2  UNL     1      -3.941  -2.186  -3.312  0.00  0.00    +0.000 C 
ATOM     17  C3  UNL     1      -4.512  -0.844  -3.773  0.00  0.00    +0.000 C 
ATOM     18  C4  UNL     1      -2.737  -2.565  -4.105  0.00  0.00    +0.000 C 
ENDBRANCH  11  16
ENDBRANCH   5  12
BRANCH   7  19
ATOM     19  C8  UNL     1      -4.061   0.930   2.605  0.00  0.00    +0.000 C 
BRANCH  19  20
ATOM     20  C9  UNL     1      -5.359   1.506   2.249  0.00  0.00    +0.000 A 
ATOM     21  C10 UNL     1      -5.444   2.391   1.192  0.00  0.00    +0.000 A 
ATOM     22  N3  UNL     1      -6.622   2.959   0.830  0.00  0.00    +0.000 NA
ATOM     23  C11 UNL     1      -7.778   2.701   1.469  0.00  0.00    +0.000 A 
ATOM     24  O2  UNL     1      -9.026   3.128   1.298  0.00  0.00    +0.000 OA
ATOM     25  C12 UNL     1      -9.818   2.576   2.197  0.00  0.00    +0.000 A 
ATOM     26  C13 UNL     1      -9.042   1.753   2.983  0.00  0.00    +0.000 A 
ATOM     27  C14 UNL     1      -7.740   1.821   2.533  0.00  0.00    +0.000 A 
ATOM     28  C15 UNL     1      -6.534   1.234   2.911  0.00  0.00    +0.000 A 
ENDBRANCH  19  20
ENDBRANCH   7  19
ENDBRANCH   4  10
ENDBRANCH   1   4
BRANCH   1  29
ATOM     29  C20 UNL     1       1.485   0.629   1.279  0.00  0.00    +0.000 C 
BRANCH  29  30
ATOM     30  C21 UNL     1       2.473   1.796   1.094  0.00  0.00    +0.000 C 
BRANCH  30  31
ATOM     31  C29 UNL     1       3.244   1.726  -0.140  0.00  0.00    +0.000 C 
ATOM     32  O4  UNL     1       3.287   2.790  -0.863  0.00  0.00    +0.000 OA
ATOM     33  N5  UNL     1       3.967   0.641  -0.666  0.00  0.00    +0.000 N 
ATOM     34  H38 UNL     1       3.955  -0.240  -0.105  0.00  0.00    +0.000 HD
BRANCH  33  35
ATOM     35  C30 UNL     1       4.706   0.633  -1.873  0.00  0.00    +0.000 C 
ATOM     36  C31 UNL     1       4.155  -0.145  -3.030  0.00  0.00    +0.000 C 
ATOM     37  C32 UNL     1       5.271   0.232  -4.039  0.00  0.00    +0.000 C 
ATOM     38  C33 UNL     1       6.446  -0.056  -3.167  0.00  0.00    +0.000 A 
ATOM     39  C34 UNL     1       7.711  -0.496  -3.479  0.00  0.00    +0.000 A 
ATOM     40  C35 UNL     1       8.674  -0.716  -2.513  0.00  0.00    +0.000 A 
ATOM     41  C36 UNL     1       8.342  -0.482  -1.200  0.00  0.00    +0.000 A 
ATOM     42  C37 UNL     1       7.072  -0.039  -0.867  0.00  0.00    +0.000 A 
ATOM     43  C38 UNL     1       6.090   0.187  -1.832  0.00  0.00    +0.000 A 
BRANCH  36  44
ATOM     44  O5  UNL     1       4.295  -1.527  -2.914  0.00  0.00    +0.000 OA
ATOM     45  H41 UNL     1       5.221  -1.756  -2.760  0.00  0.00    +0.000 HD
ENDBRANCH  36  44
ENDBRANCH  33  35
ENDBRANCH  30  31
BRANCH  30  46
ATOM     46  C22 UNL     1       3.193   2.165   2.333  0.00  0.00    +0.000 C 
BRANCH  46  47
ATOM     47  C23 UNL     1       4.031   1.159   2.963  0.00  0.00    +0.000 A 
ATOM     48  C24 UNL     1       5.354   1.070   2.599  0.00  0.00    +0.000 A 
ATOM     49  C25 UNL     1       6.240   0.148   3.133  0.00  0.00    +0.000 A 
ATOM     50  C26 UNL     1       5.771  -0.725   4.075  0.00  0.00    +0.000 A 
ATOM     51  C27 UNL     1       4.447  -0.657   4.457  0.00  0.00    +0.000 A 
ATOM     52  C28 UNL     1       3.572   0.276   3.912  0.00  0.00    +0.000 A 
ENDBRANCH  46  47
ENDBRANCH  30  46
ENDBRANCH  29  30
ENDBRANCH   1  29
TORSDOF 14
