REMARK  Name = ./3D_structures\o68_MMV1782352_3D.pdb
REMARK  10 active torsions:
REMARK  status: ('A' for Active; 'I' for Inactive)
REMARK    1  A    between atoms: O1_1  and  C1_2
REMARK    2  A    between atoms: C1_2  and  C2_4
REMARK    3  A    between atoms: C2_4  and  O3_5
REMARK    4  A    between atoms: O3_5  and  C3_6
REMARK    5  A    between atoms: C9_12  and  O4_13
REMARK    6  A    between atoms: C9_12  and  C10_14
REMARK    7  A    between atoms: C10_14  and  O5_15
REMARK    8  A    between atoms: O5_15  and  C11_16
REMARK    9  A    between atoms: N1_18  and  C12_19
REMARK   10  A    between atoms: N1_18  and  C18_25
REMARK                            x       y       z     vdW  Elec       q    Type
REMARK                         _______ _______ _______ _____ _____    ______ ____
ROOT
ATOM      1  C3  UNL     1       4.382   0.475   0.594  0.00  0.00    +0.000 A 
ATOM      2  C4  UNL     1       4.677   0.166   1.901  0.00  0.00    +0.000 A 
ATOM      3  C5  UNL     1       3.910  -0.769   2.607  0.00  0.00    +0.000 A 
ATOM      4  C6  UNL     1       2.850  -1.381   1.981  0.00  0.00    +0.000 A 
ATOM      5  C7  UNL     1       2.533  -1.082   0.655  0.00  0.00    +0.000 A 
ATOM      6  C8  UNL     1       1.378  -1.785   0.051  0.00  0.00    +0.000 C 
ATOM      7  C9  UNL     1       1.200  -1.478  -1.400  0.00  0.00    +0.000 C 
ATOM      8  C24 UNL     1       1.522   0.005  -1.613  0.00  0.00    +0.000 C 
ATOM      9  C25 UNL     1       3.011   0.184  -1.405  0.00  0.00    +0.000 C 
ATOM     10  C26 UNL     1       3.313  -0.160   0.003  0.00  0.00    +0.000 A 
ENDROOT
BRANCH   7  11
ATOM     11  O4  UNL     1       2.125  -2.196  -2.154  0.00  0.00    +0.000 OA
ATOM     12  H9  UNL     1       1.866  -2.294  -3.085  0.00  0.00    +0.000 HD
ENDBRANCH   7  11
BRANCH   1  13
ATOM     13  O3  UNL     1       5.109   1.379  -0.118  0.00  0.00    +0.000 OA
BRANCH  13  14
ATOM     14  C2  UNL     1       6.214   2.119   0.279  0.00  0.00    +0.000 C 
BRANCH  14  15
ATOM     15  C1  UNL     1       7.390   1.329   0.685  0.00  0.00    +0.000 C 
ATOM     16  O2  UNL     1       8.402   1.995   1.066  0.00  0.00    +0.000 OA
BRANCH  15  17
ATOM     17  O1  UNL     1       7.496  -0.035   0.690  0.00  0.00    +0.000 OA
ATOM     18  H1  UNL     1       8.312  -0.479   1.101  0.00  0.00    +0.000 HD
ENDBRANCH  15  17
ENDBRANCH  14  15
ENDBRANCH  13  14
ENDBRANCH   1  13
BRANCH   7  19
ATOM     19  C10 UNL     1      -0.209  -1.786  -1.842  0.00  0.00    +0.000 C 
BRANCH  19  20
ATOM     20  O5  UNL     1      -1.163  -1.068  -1.089  0.00  0.00    +0.000 OA
BRANCH  20  21
ATOM     21  C11 UNL     1      -2.525  -1.176  -1.297  0.00  0.00    +0.000 C 
ATOM     22  O6  UNL     1      -2.924  -1.953  -2.200  0.00  0.00    +0.000 OA
ATOM     23  N1  UNL     1      -3.480  -0.447  -0.532  0.00  0.00    +0.000 N 
BRANCH  23  24
ATOM     24  C12 UNL     1      -4.872  -0.598  -0.785  0.00  0.00    +0.000 A 
ATOM     25  C13 UNL     1      -5.510   0.117  -1.772  0.00  0.00    +0.000 A 
ATOM     26  C14 UNL     1      -6.850  -0.037  -2.007  0.00  0.00    +0.000 A 
ATOM     27  C15 UNL     1      -7.574  -0.927  -1.237  0.00  0.00    +0.000 A 
ATOM     28  C16 UNL     1      -6.961  -1.668  -0.229  0.00  0.00    +0.000 A 
ATOM     29  C17 UNL     1      -5.600  -1.491  -0.013  0.00  0.00    +0.000 A 
ENDBRANCH  23  24
BRANCH  23  30
ATOM     30  C18 UNL     1      -3.099   0.452   0.502  0.00  0.00    +0.000 A 
ATOM     31  C19 UNL     1      -2.353   0.025   1.581  0.00  0.00    +0.000 A 
ATOM     32  C20 UNL     1      -1.980   0.910   2.594  0.00  0.00    +0.000 A 
ATOM     33  C21 UNL     1      -2.342   2.240   2.555  0.00  0.00    +0.000 A 
ATOM     34  C22 UNL     1      -3.087   2.663   1.475  0.00  0.00    +0.000 A 
ATOM     35  C23 UNL     1      -3.455   1.787   0.475  0.00  0.00    +0.000 A 
ENDBRANCH  23  30
ENDBRANCH  20  21
ENDBRANCH  19  20
ENDBRANCH   7  19
TORSDOF 10
