REMARK  Name = ./3D_structures\o69_MMV1782350_3D.pdb
REMARK  11 active torsions:
REMARK  status: ('A' for Active; 'I' for Inactive)
REMARK    1  A    between atoms: C1_1  and  C2_2
REMARK    2  A    between atoms: C2_2  and  C3_3
REMARK    3  A    between atoms: C2_2  and  O1_4
REMARK    4  A    between atoms: O1_4  and  C4_5
REMARK    5  A    between atoms: C7_8  and  N1_11
REMARK    6  A    between atoms: C13_16  and  C14_17
REMARK    7  A    between atoms: C15_18  and  C16_19
REMARK    8  A    between atoms: C19_22  and  C22_25
REMARK    9  A    between atoms: C22_25  and  C23_26
REMARK   10  A    between atoms: C22_25  and  C24_27
REMARK   11  A    between atoms: C22_25  and  O2_28
REMARK                            x       y       z     vdW  Elec       q    Type
REMARK                         _______ _______ _______ _____ _____    ______ ____
ROOT
ATOM      1  N1  UNL     1      -2.383  -2.166  -0.063  0.00  0.00    +0.000 N 
ATOM      2  C10 UNL     1      -2.682  -3.339   0.556  0.00  0.00    +0.000 A 
ATOM      3  N2  UNL     1      -1.665  -4.188   0.458  0.00  0.00    +0.000 NA
ATOM      4  C11 UNL     1      -0.701  -3.529  -0.244  0.00  0.00    +0.000 A 
ATOM      5  C12 UNL     1       0.548  -3.921  -0.619  0.00  0.00    +0.000 A 
ATOM      6  C13 UNL     1       1.440  -3.113  -1.328  0.00  0.00    +0.000 A 
ATOM      7  C25 UNL     1       0.985  -1.861  -1.648  0.00  0.00    +0.000 A 
ATOM      8  C26 UNL     1      -0.282  -1.470  -1.269  0.00  0.00    +0.000 A 
ATOM      9  C27 UNL     1      -1.155  -2.282  -0.562  0.00  0.00    +0.000 A 
ENDROOT
BRANCH   1  13
ATOM     10  C4  UNL     1      -5.066   1.060  -0.016  0.00  0.00    +0.000 A 
ATOM     11  C5  UNL     1      -4.457   0.638   1.139  0.00  0.00    +0.000 A 
ATOM     12  C6  UNL     1      -3.553  -0.425   1.074  0.00  0.00    +0.000 A 
ATOM     13  C7  UNL     1      -3.273  -1.046  -0.126  0.00  0.00    +0.000 A 
ATOM     14  C8  UNL     1      -3.877  -0.623  -1.276  0.00  0.00    +0.000 A 
ATOM     15  C9  UNL     1      -4.772   0.433  -1.202  0.00  0.00    +0.000 A 
BRANCH  10  16
ATOM     16  O1  UNL     1      -5.980   2.103  -0.058  0.00  0.00    +0.000 OA
BRANCH  16  18
ATOM     17  C1  UNL     1      -7.839   2.456   1.428  0.00  0.00    +0.000 C 
ATOM     18  C2  UNL     1      -6.416   2.891   1.002  0.00  0.00    +0.000 C 
ATOM     19  C3  UNL     1      -6.524   4.333   0.562  0.00  0.00    +0.000 C 
ENDBRANCH  16  18
ENDBRANCH  10  16
ENDBRANCH   1  13
BRANCH   6  20
ATOM     20  C14 UNL     1       2.640  -3.746  -1.728  0.00  0.00    +0.000 C 
ATOM     21  C15 UNL     1       3.831  -3.270  -1.666  0.00  0.00    +0.000 C 
BRANCH  21  22
ATOM     22  C16 UNL     1       4.195  -1.994  -1.149  0.00  0.00    +0.000 A 
ATOM     23  C17 UNL     1       5.446  -1.465  -1.496  0.00  0.00    +0.000 A 
ATOM     24  C18 UNL     1       5.954  -0.300  -0.986  0.00  0.00    +0.000 A 
ATOM     25  C19 UNL     1       5.252   0.447  -0.077  0.00  0.00    +0.000 A 
ATOM     26  C20 UNL     1       4.024  -0.026   0.295  0.00  0.00    +0.000 A 
ATOM     27  C21 UNL     1       3.515  -1.216  -0.230  0.00  0.00    +0.000 A 
BRANCH  25  28
ATOM     28  C22 UNL     1       5.879   1.689   0.469  0.00  0.00    +0.000 C 
ATOM     29  C23 UNL     1       5.185   2.947   0.061  0.00  0.00    +0.000 C 
ATOM     30  C24 UNL     1       5.921   1.558   1.981  0.00  0.00    +0.000 C 
BRANCH  28  31
ATOM     31  O2  UNL     1       7.215   1.774   0.030  0.00  0.00    +0.000 OA
ATOM     32  H26 UNL     1       7.767   1.239   0.675  0.00  0.00    +0.000 HD
ENDBRANCH  28  31
ENDBRANCH  25  28
ENDBRANCH  21  22
ENDBRANCH   6  20
TORSDOF 7
