REMARK  Name = ./3D_structures\o70_MMV1782386_3D.pdb
REMARK  8 active torsions:
REMARK  status: ('A' for Active; 'I' for Inactive)
REMARK    1  A    between atoms: C1_1  and  N1_2
REMARK    2  A    between atoms: N1_2  and  O1_3
REMARK    3  A    between atoms: C2_4  and  C3_6
REMARK    4  A    between atoms: C6_9  and  C7_10
REMARK    5  A    between atoms: C7_10  and  N2_11
REMARK    6  A    between atoms: C11_15  and  C12_16
REMARK    7  A    between atoms: N4_20  and  C14_21
REMARK    8  A    between atoms: C14_21  and  C15_22
REMARK                            x       y       z     vdW  Elec       q    Type
REMARK                         _______ _______ _______ _____ _____    ______ ____
ROOT
ATOM      1  C3  UNL     1      -0.771   2.981  -0.332  0.00  0.00    +0.000 A 
ATOM      2  C4  UNL     1      -1.128   1.658  -0.574  0.00  0.00    +0.000 A 
ATOM      3  C5  UNL     1      -0.091   0.743  -0.297  0.00  0.00    +0.000 A 
ATOM      4  C6  UNL     1      -0.219  -0.651  -0.173  0.00  0.00    +0.000 A 
ATOM      5  C13 UNL     1       0.997  -1.045   0.341  0.00  0.00    +0.000 A 
ATOM      6  N4  UNL     1       1.825  -0.058   0.545  0.00  0.00    +0.000 N 
ATOM      7  C21 UNL     1       1.146   1.081   0.145  0.00  0.00    +0.000 A 
ATOM      8  C22 UNL     1       1.418   2.441   0.359  0.00  0.00    +0.000 A 
ATOM      9  N5  UNL     1       0.449   3.316   0.112  0.00  0.00    +0.000 NA
ENDROOT
BRANCH   1  12
ATOM     10  C1  UNL     1      -2.688   6.256  -0.003  0.00  0.00    +0.000 C 
ATOM     11  N1  UNL     1      -1.633   5.281   0.040  0.00  0.00    +0.000 N 
ATOM     12  C2  UNL     1      -1.830   3.965  -0.435  0.00  0.00    +0.000 C 
ATOM     13  O2  UNL     1      -2.961   3.679  -0.934  0.00  0.00    +0.000 OA
BRANCH  11  14
ATOM     14  O1  UNL     1      -0.422   5.629   0.552  0.00  0.00    +0.000 OA
ATOM     15  H4  UNL     1      -0.081   6.461   0.155  0.00  0.00    +0.000 HD
ENDBRANCH  11  14
ENDBRANCH   1  12
BRANCH   4  16
ATOM     16  C7  UNL     1      -1.358  -1.457  -0.688  0.00  0.00    +0.000 C 
BRANCH  16  17
ATOM     17  N2  UNL     1      -1.587  -2.426   0.415  0.00  0.00    +0.000 NA
ATOM     18  C8  UNL     1      -2.078  -1.466   1.489  0.00  0.00    +0.000 C 
ATOM     19  C9  UNL     1      -3.461  -1.173   0.962  0.00  0.00    +0.000 C 
ATOM     20  C10 UNL     1      -3.956  -2.609   0.778  0.00  0.00    +0.000 C 
ATOM     21  C11 UNL     1      -2.728  -3.249   0.245  0.00  0.00    +0.000 C 
BRANCH  21  22
ATOM     22  C12 UNL     1      -2.881  -3.764  -1.133  0.00  0.00    +0.000 C 
ATOM     23  O3  UNL     1      -2.169  -4.705  -1.506  0.00  0.00    +0.000 OA
ATOM     24  N3  UNL     1      -3.843  -3.191  -2.004  0.00  0.00    +0.000 N 
ATOM     25  H15 UNL     1      -3.447  -2.526  -2.726  0.00  0.00    +0.000 HD
ATOM     26  H16 UNL     1      -4.854  -3.389  -1.963  0.00  0.00    +0.000 HD
ENDBRANCH  21  22
ENDBRANCH  16  17
ENDBRANCH   4  16
BRANCH   6  27
ATOM     27  C14 UNL     1       3.194   0.010   0.933  0.00  0.00    +0.000 C 
BRANCH  27  28
ATOM     28  C15 UNL     1       4.241  -0.782   0.313  0.00  0.00    +0.000 A 
ATOM     29  C16 UNL     1       4.182  -1.404  -0.895  0.00  0.00    +0.000 A 
ATOM     30  C17 UNL     1       5.313  -2.099  -1.352  0.00  0.00    +0.000 A 
ATOM     31  C18 UNL     1       6.471  -2.190  -0.648  0.00  0.00    +0.000 A 
ATOM     32  F1  UNL     1       7.566  -2.826  -1.078  0.00  0.00    +0.000 F 
ATOM     33  C19 UNL     1       6.546  -1.561   0.604  0.00  0.00    +0.000 A 
ATOM     34  C20 UNL     1       5.442  -0.883   1.037  0.00  0.00    +0.000 A 
ENDBRANCH  27  28
ENDBRANCH   6  27
TORSDOF 7
