REMARK  Name = ./3D_structures\o74_MMV690555_3D.pdb
REMARK  3 active torsions:
REMARK  status: ('A' for Active; 'I' for Inactive)
REMARK    1  A    between atoms: C1_2  and  C2_5
REMARK    2  A    between atoms: C8_13  and  C10_16
REMARK    3  A    between atoms: C12_21  and  C14_23
REMARK                            x       y       z     vdW  Elec       q    Type
REMARK                         _______ _______ _______ _____ _____    ______ ____
ROOT
ATOM      1  C2  UNL     1      -1.872   2.003   0.049  0.00  0.00    +0.000 A 
ATOM      2  N1  UNL     1      -0.661   1.449  -0.037  0.00  0.00    +0.000 NA
ATOM      3  C3  UNL     1      -0.524   0.130  -0.179  0.00  0.00    +0.000 A 
ATOM      4  C4  UNL     1      -1.647  -0.704  -0.247  0.00  0.00    +0.000 A 
ATOM      5  C5  UNL     1      -1.513  -2.069  -0.361  0.00  0.00    +0.000 A 
ATOM      6  C6  UNL     1      -0.262  -2.609  -0.416  0.00  0.00    +0.000 A 
ATOM      7  C7  UNL     1       0.870  -1.789  -0.350  0.00  0.00    +0.000 A 
ATOM      8  N2  UNL     1       2.195  -2.013  -0.356  0.00  0.00    +0.000 NA
ATOM      9  C8  UNL     1       2.867  -0.856  -0.249  0.00  0.00    +0.000 A 
ATOM     10  C9  UNL     1       1.919   0.108  -0.181  0.00  0.00    +0.000 A 
ATOM     11  N3  UNL     1       0.676  -0.456  -0.234  0.00  0.00    +0.000 N 
ATOM     12  C12 UNL     1      -2.887  -0.114  -0.165  0.00  0.00    +0.000 A 
ATOM     13  C13 UNL     1      -3.027   1.255  -0.012  0.00  0.00    +0.000 A 
ENDROOT
BRANCH   9  14
ATOM     14  C10 UNL     1       4.295  -0.639  -0.229  0.00  0.00    +0.000 A 
ATOM     15  N4  UNL     1       5.261  -1.611  -0.311  0.00  0.00    +0.000 NA
ATOM     16  N5  UNL     1       6.440  -1.065  -0.263  0.00  0.00    +0.000 NA
ATOM     17  C11 UNL     1       6.245   0.277  -0.146  0.00  0.00    +0.000 A 
ATOM     18  O1  UNL     1       4.970   0.460  -0.129  0.00  0.00    +0.000 OA
ENDBRANCH   9  14
BRANCH   1  20
ATOM     19  F1  UNL     1      -1.029   4.106  -0.526  0.00  0.00    +0.000 F 
ATOM     20  C1  UNL     1      -2.009   3.479   0.232  0.00  0.00    +0.000 C 
ATOM     21  F2  UNL     1      -3.276   3.800  -0.275  0.00  0.00    +0.000 F 
ATOM     22  F3  UNL     1      -1.870   3.768   1.578  0.00  0.00    +0.000 F 
ENDBRANCH   1  20
BRANCH  12  23
ATOM     23  C14 UNL     1      -4.083  -0.961  -0.208  0.00  0.00    +0.000 C 
ATOM     24  F4  UNL     1      -4.193  -1.724  -1.354  0.00  0.00    +0.000 F 
ATOM     25  F5  UNL     1      -5.218  -0.132  -0.216  0.00  0.00    +0.000 F 
ATOM     26  F6  UNL     1      -4.190  -1.685   0.966  0.00  0.00    +0.000 F 
ENDBRANCH  12  23
TORSDOF 3
