REMARK  Name = ./3D_structures\o77_MMV002350_3D.pdb
REMARK  6 active torsions:
REMARK  status: ('A' for Active; 'I' for Inactive)
REMARK    1  A    between atoms: C2_3  and  N1_4
REMARK    2  A    between atoms: C4_6  and  C7_10
REMARK    3  A    between atoms: N3_15  and  C16_23
REMARK    4  A    between atoms: C13_17  and  C14_18
REMARK    5  A    between atoms: C14_18  and  O2_20
REMARK    6  A    between atoms: C16_23  and  C17_24
REMARK                            x       y       z     vdW  Elec       q    Type
REMARK                         _______ _______ _______ _____ _____    ______ ____
ROOT
ATOM      1  F1  UNL     1      -0.145  -1.599  -0.420  0.00  0.00    +0.000 F 
ATOM      2  C1  UNL     1       0.294  -0.358  -0.127  0.00  0.00    +0.000 A 
ATOM      3  C2  UNL     1      -0.657   0.644  -0.115  0.00  0.00    +0.000 A 
ATOM      4  C8  UNL     1      -0.256   1.943   0.153  0.00  0.00    +0.000 A 
ATOM      5  C9  UNL     1       1.077   2.206   0.399  0.00  0.00    +0.000 A 
ATOM      6  C10 UNL     1       2.013   1.188   0.382  0.00  0.00    +0.000 A 
ATOM      7  C11 UNL     1       1.638  -0.129   0.116  0.00  0.00    +0.000 A 
ATOM      8  N3  UNL     1       2.558  -1.105   0.092  0.00  0.00    +0.000 N 
ATOM      9  C12 UNL     1       3.879  -0.826   0.324  0.00  0.00    +0.000 A 
ATOM     10  C13 UNL     1       4.307   0.449   0.589  0.00  0.00    +0.000 A 
ATOM     11  C15 UNL     1       3.355   1.440   0.613  0.00  0.00    +0.000 A 
ATOM     12  O3  UNL     1       3.669   2.648   0.852  0.00  0.00    +0.000 OA
ATOM     13  F2  UNL     1      -1.189   2.925   0.166  0.00  0.00    +0.000 F 
ENDROOT
BRANCH   3  14
ATOM     14  N1  UNL     1      -2.014   0.321  -0.374  0.00  0.00    +0.000 N 
ATOM     15  C3  UNL     1      -2.923  -0.042   0.694  0.00  0.00    +0.000 C 
ATOM     16  C4  UNL     1      -4.357   0.064   0.228  0.00  0.00    +0.000 C 
ATOM     17  N2  UNL     1      -4.631  -0.676  -0.961  0.00  0.00    +0.000 NA
ATOM     18  C5  UNL     1      -3.633  -0.603  -1.975  0.00  0.00    +0.000 C 
ATOM     19  C6  UNL     1      -2.521   0.348  -1.712  0.00  0.00    +0.000 C 
ATOM     20  C7  UNL     1      -4.781   1.510   0.160  0.00  0.00    +0.000 C 
ATOM     21  H4  UNL     1      -4.946  -1.635  -0.788  0.00  0.00    +0.000 HD
ENDBRANCH   3  14
BRANCH  10  22
ATOM     22  C14 UNL     1       5.731   0.751   0.840  0.00  0.00    +0.000 C 
ATOM     23  O1  UNL     1       6.570  -0.157   0.813  0.00  0.00    +0.000 OA
BRANCH  22  24
ATOM     24  O2  UNL     1       6.083   2.068   1.100  0.00  0.00    +0.000 OA
ATOM     25  H14 UNL     1       7.059   2.371   1.110  0.00  0.00    +0.000 HD
ENDBRANCH  22  24
ENDBRANCH  10  22
BRANCH   8  26
ATOM     26  C16 UNL     1       2.199  -2.490  -0.125  0.00  0.00    +0.000 C 
ATOM     27  C17 UNL     1       2.120  -2.788  -1.602  0.00  0.00    +0.000 C 
ENDBRANCH   8  26
TORSDOF 4
