REMARK  Name = ./3D_structures\o8_MMV1633963_3D.pdb
REMARK  6 active torsions:
REMARK  status: ('A' for Active; 'I' for Inactive)
REMARK    1  A    between atoms: C5_6  and  O1_8
REMARK    2  A    between atoms: O1_8  and  C7_9
REMARK    3  A    between atoms: C9_11  and  C13_15
REMARK    4  A    between atoms: C14_16  and  C15_17
REMARK    5  A    between atoms: C16_18  and  C17_19
REMARK    6  A    between atoms: C17_19  and  O3_21
REMARK                            x       y       z     vdW  Elec       q    Type
REMARK                         _______ _______ _______ _____ _____    ______ ____
ROOT
ATOM      1  C7  UNL     1      -1.139  -0.214   0.035  0.00  0.00    +0.000 A 
ATOM      2  C8  UNL     1       0.240  -0.025  -0.013  0.00  0.00    +0.000 A 
ATOM      3  C9  UNL     1       1.078  -1.065  -0.341  0.00  0.00    +0.000 A 
ATOM      4  C10 UNL     1       0.470  -2.288  -0.614  0.00  0.00    +0.000 A 
ATOM      5  C11 UNL     1      -0.895  -2.473  -0.567  0.00  0.00    +0.000 A 
ATOM      6  C12 UNL     1      -1.733  -1.427  -0.238  0.00  0.00    +0.000 A 
ENDROOT
BRANCH   3   7
ATOM      7  C13 UNL     1       2.527  -0.952  -0.413  0.00  0.00    +0.000 C 
ATOM      8  C14 UNL     1       3.189   0.160  -0.172  0.00  0.00    +0.000 C 
BRANCH   8   9
ATOM      9  C15 UNL     1       4.666   0.147  -0.278  0.00  0.00    +0.000 C 
ATOM     10  C16 UNL     1       5.393   1.214  -0.053  0.00  0.00    +0.000 C 
BRANCH  10  11
ATOM     11  C17 UNL     1       6.848   1.237  -0.149  0.00  0.00    +0.000 C 
ATOM     12  O2  UNL     1       7.476   0.202  -0.461  0.00  0.00    +0.000 OA
BRANCH  11  13
ATOM     13  O3  UNL     1       7.541   2.390   0.100  0.00  0.00    +0.000 OA
ATOM     14  H12 UNL     1       8.516   2.545  -0.087  0.00  0.00    +0.000 HD
ENDBRANCH  11  13
ENDBRANCH  10  11
ENDBRANCH   8   9
ENDBRANCH   3   7
BRANCH   1  15
ATOM     15  O1  UNL     1      -1.967   0.867   0.372  0.00  0.00    +0.000 OA
BRANCH  15  21
ATOM     16 CL1  UNL     1      -6.255  -0.235   3.071  0.00  0.00    +0.000 Cl
ATOM     17  C1  UNL     1      -5.387   0.228   1.617  0.00  0.00    +0.000 A 
ATOM     18  C2  UNL     1      -6.149   0.462   0.476  0.00  0.00    +0.000 A 
ATOM     19  C3  UNL     1      -5.508   0.823  -0.670  0.00  0.00    +0.000 A 
ATOM     20  C4  UNL     1      -4.129   0.954  -0.692  0.00  0.00    +0.000 A 
ATOM     21  C5  UNL     1      -3.346   0.727   0.432  0.00  0.00    +0.000 A 
ATOM     22  C6  UNL     1      -4.018   0.363   1.577  0.00  0.00    +0.000 A 
ATOM     23 CL2  UNL     1      -6.457   1.124  -2.127  0.00  0.00    +0.000 Cl
ENDBRANCH  15  21
ENDBRANCH   1  15
TORSDOF 6
