2D_structures\o13_MMV1557856_2D.pdb
 OpenBabel02282413353D

114119  0  0  1  0  0  0  0  0999 V2000
   -4.9140    5.1530    0.0000 F   0  0  0  0  0  0  0  0  0  0  0  0
   -3.5960    4.4370    0.0000 C   0  0  0  0  0  0  0  0  0  0  0  0
   -3.5570    2.9380    0.0000 C   0  0  0  0  0  0  0  0  0  0  0  0
   -2.2390    2.2220    0.0000 C   0  0  0  0  0  0  0  0  0  0  0  0
   -0.9600    3.0050    0.0000 C   0  0  0  0  0  0  0  0  0  0  0  0
    0.1810    2.0310    0.0000 C   0  0  0  0  0  0  0  0  0  0  0  0
   -0.3930    0.6450    0.0000 C   0  0  0  0  0  0  0  0  0  0  0  0
   -1.8890    0.7630    0.0000 N   0  0  0  0  0  0  0  0  0  0  0  0
    0.3900   -0.6340    0.0000 C   0  0  0  0  0  0  0  0  0  0  0  0
   -0.1840   -2.0200    0.0000 C   0  0  0  0  0  0  0  0  0  0  0  0
    0.9560   -2.9940    0.0000 C   0  0  0  0  0  0  0  0  0  0  0  0
    2.2360   -2.2100    0.0000 C   0  0  0  0  0  0  0  0  0  0  0  0
    1.8860   -0.7520    0.0000 N   0  0  0  0  0  0  0  0  0  0  0  0
    3.5540   -2.9260    0.0000 C   0  0  0  0  0  0  0  0  0  0  0  0
    3.5930   -4.4260    0.0000 C   0  0  0  0  0  0  0  0  0  0  0  0
    4.9110   -5.1420    0.0000 F   0  0  0  0  0  0  0  0  0  0  0  0
    2.3140   -5.2090    0.0000 C   0  0  0  0  0  0  0  0  0  0  0  0
    0.9960   -4.4930    0.0000 C   0  0  0  0  0  0  0  0  0  0  0  0
   -1.6430   -2.3690    0.0000 C   0  0  0  0  0  0  0  0  0  0  0  0
   -3.1010   -2.7190    0.0000 C   0  0  1  0  0  0  0  0  0  0  0  0
   -4.6010   -2.7590    0.0000 N   0  0  0  0  0  0  0  0  0  0  0  0
   -5.5140   -1.5680    0.0000 C   0  0  0  0  0  0  0  0  0  0  0  0
   -4.9390   -0.1830    0.0000 O   0  0  0  0  0  0  0  0  0  0  0  0
   -7.0010   -1.7640    0.0000 C   0  0  1  0  0  0  0  0  0  0  0  0
   -7.1960   -0.2770    0.0000 N   0  0  0  0  0  0  0  0  0  0  0  0
   -8.5820    0.2970    0.0000 C   0  0  0  0  0  0  0  0  0  0  0  0
   -9.8750   -0.4640    0.0000 O   0  0  0  0  0  0  0  0  0  0  0  0
   -8.7780    1.7850    0.0000 C   0  0  1  0  0  0  0  0  0  0  0  0
  -10.2650    1.5890    0.0000 N   0  0  0  0  0  0  0  0  0  0  0  0
  -11.1780    2.7790    0.0000 C   0  0  0  0  0  0  0  0  0  0  0  0
   -8.9730    3.2720    0.0000 C   0  0  0  0  0  0  0  0  0  0  0  0
   -8.4880   -1.9600    0.0000 C   0  0  0  0  0  0  0  0  0  0  0  0
   -9.9750   -2.1550    0.0000 C   0  0  0  0  0  0  0  0  0  0  0  0
   -5.0270   -4.1970    0.0000 C   0  0  0  0  0  0  0  0  0  0  0  0
   -3.7910   -5.0460    0.0000 C   0  0  1  0  0  0  0  0  0  0  0  0
   -2.6010   -4.1330    0.0000 C   0  0  0  0  0  0  0  0  0  0  0  0
   -4.7650   -6.1870    0.0000 O   0  0  0  0  0  0  0  0  0  0  0  0
    1.6390    2.3810    0.0000 C   0  0  0  0  0  0  0  0  0  0  0  0
    3.0980    2.7310    0.0000 C   0  0  1  0  0  0  0  0  0  0  0  0
    4.5980    2.7700    0.0000 N   0  0  0  0  0  0  0  0  0  0  0  0
    5.5100    1.5800    0.0000 C   0  0  0  0  0  0  0  0  0  0  0  0
    4.9360    0.1940    0.0000 O   0  0  0  0  0  0  0  0  0  0  0  0
    6.9980    1.7760    0.0000 C   0  0  1  0  0  0  0  0  0  0  0  0
    7.1930    0.2880    0.0000 N   0  0  0  0  0  0  0  0  0  0  0  0
    8.5790   -0.2860    0.0000 C   0  0  0  0  0  0  0  0  0  0  0  0
    9.8720    0.4750    0.0000 O   0  0  0  0  0  0  0  0  0  0  0  0
    8.7750   -1.7730    0.0000 C   0  0  1  0  0  0  0  0  0  0  0  0
   10.2620   -1.5770    0.0000 N   0  0  0  0  0  0  0  0  0  0  0  0
   11.1750   -2.7680    0.0000 C   0  0  0  0  0  0  0  0  0  0  0  0
    8.9700   -3.2600    0.0000 C   0  0  0  0  0  0  0  0  0  0  0  0
    8.4850    1.9710    0.0000 C   0  0  0  0  0  0  0  0  0  0  0  0
    9.9720    2.1670    0.0000 C   0  0  0  0  0  0  0  0  0  0  0  0
    5.0240    4.2080    0.0000 C   0  0  0  0  0  0  0  0  0  0  0  0
    3.7880    5.0580    0.0000 C   0  0  1  0  0  0  0  0  0  0  0  0
    2.5970    4.1450    0.0000 C   0  0  0  0  0  0  0  0  0  0  0  0
    4.7620    6.1980    0.0000 O   0  0  0  0  0  0  0  0  0  0  0  0
   -0.9990    4.5050    0.0000 C   0  0  0  0  0  0  0  0  0  0  0  0
   -2.3170    5.2210    0.0000 C   0  0  0  0  0  0  0  0  0  0  0  0
   -4.8360    2.1540    0.0000 H   0  0  0  0  0  0  0  0  0  0  0  0
   -2.8630   -0.3770    0.0000 H   0  0  0  0  0  0  0  0  0  0  0  0
    2.8600    0.3890    0.0000 H   0  0  0  0  0  0  0  0  0  0  0  0
    4.8330   -2.1430    0.0000 H   0  0  0  0  0  0  0  0  0  0  0  0
    2.3530   -6.7090    0.0000 H   0  0  0  0  0  0  0  0  0  0  0  0
   -0.2840   -5.2770    0.0000 H   0  0  0  0  0  0  0  0  0  0  0  0
   -1.1170   -3.7750    0.0000 H   0  0  0  0  0  0  0  0  0  0  0  0
   -1.9930   -0.9110    0.0000 H   0  0  0  0  0  0  0  0  0  0  0  0
   -3.2970   -1.2320    0.0000 H   0  0  0  0  0  0  0  0  0  0  0  0
   -6.9880   -3.2640    0.0000 H   0  0  0  0  0  0  0  0  0  0  0  0
   -6.0060    0.6360    0.0000 H   0  0  0  0  0  0  0  0  0  0  0  0
   -7.2910    1.9800    0.0000 H   0  0  0  0  0  0  0  0  0  0  0  0
  -10.8390    0.2030    0.0000 H   0  0  0  0  0  0  0  0  0  0  0  0
  -12.0910    3.9690    0.0000 H   0  0  0  0  0  0  0  0  0  0  0  0
  -12.3680    1.8660    0.0000 H   0  0  0  0  0  0  0  0  0  0  0  0
  -10.6090    3.3380    0.0000 H   0  0  0  0  0  0  0  0  0  0  0  0
   -9.1690    4.7590    0.0000 H   0  0  0  0  0  0  0  0  0  0  0  0
   -7.4860    3.4670    0.0000 H   0  0  0  0  0  0  0  0  0  0  0  0
   -9.7490    3.4580    0.0000 H   0  0  0  0  0  0  0  0  0  0  0  0
   -8.2920   -3.4470    0.0000 H   0  0  0  0  0  0  0  0  0  0  0  0
   -9.0380   -0.5640    0.0000 H   0  0  0  0  0  0  0  0  0  0  0  0
  -11.4620   -2.3510    0.0000 H   0  0  0  0  0  0  0  0  0  0  0  0
   -9.7800   -3.6420    0.0000 H   0  0  0  0  0  0  0  0  0  0  0  0
  -10.3510   -0.7030    0.0000 H   0  0  0  0  0  0  0  0  0  0  0  0
   -6.4720   -3.7960    0.0000 H   0  0  0  0  0  0  0  0  0  0  0  0
   -5.7430   -5.5150    0.0000 H   0  0  0  0  0  0  0  0  0  0  0  0
   -2.7580   -6.1350    0.0000 H   0  0  0  0  0  0  0  0  0  0  0  0
   -1.8170   -5.4130    0.0000 H   0  0  0  0  0  0  0  0  0  0  0  0
   -1.1780   -3.6580    0.0000 H   0  0  0  0  0  0  0  0  0  0  0  0
   -4.2650   -7.6010    0.0000 H   0  0  0  0  0  0  0  0  0  0  0  0
    1.9890    0.9220    0.0000 H   0  0  0  0  0  0  0  0  0  0  0  0
    1.1140    3.7860    0.0000 H   0  0  0  0  0  0  0  0  0  0  0  0
    3.2940    1.2440    0.0000 H   0  0  0  0  0  0  0  0  0  0  0  0
    6.9850    3.2750    0.0000 H   0  0  0  0  0  0  0  0  0  0  0  0
    6.0030   -0.6250    0.0000 H   0  0  0  0  0  0  0  0  0  0  0  0
    7.2870   -1.9690    0.0000 H   0  0  0  0  0  0  0  0  0  0  0  0
   10.8360   -0.1920    0.0000 H   0  0  0  0  0  0  0  0  0  0  0  0
   12.0880   -3.9580    0.0000 H   0  0  0  0  0  0  0  0  0  0  0  0
   12.3650   -1.8550    0.0000 H   0  0  0  0  0  0  0  0  0  0  0  0
   10.1050   -3.8190    0.0000 H   0  0  0  0  0  0  0  0  0  0  0  0
    9.1660   -4.7470    0.0000 H   0  0  0  0  0  0  0  0  0  0  0  0
    7.4830   -3.4560    0.0000 H   0  0  0  0  0  0  0  0  0  0  0  0
   10.4290   -3.6110    0.0000 H   0  0  0  0  0  0  0  0  0  0  0  0
    9.0350    0.5750    0.0000 H   0  0  0  0  0  0  0  0  0  0  0  0
    8.2890    3.4580    0.0000 H   0  0  0  0  0  0  0  0  0  0  0  0
   11.4590    2.3620    0.0000 H   0  0  0  0  0  0  0  0  0  0  0  0
    9.7760    3.6540    0.0000 H   0  0  0  0  0  0  0  0  0  0  0  0
   10.3470    0.7140    0.0000 H   0  0  0  0  0  0  0  0  0  0  0  0
    6.4690    3.8070    0.0000 H   0  0  0  0  0  0  0  0  0  0  0  0
    5.7400    5.5260    0.0000 H   0  0  0  0  0  0  0  0  0  0  0  0
    2.7550    6.1460    0.0000 H   0  0  0  0  0  0  0  0  0  0  0  0
    1.8140    5.4240    0.0000 H   0  0  0  0  0  0  0  0  0  0  0  0
    1.1750    3.6690    0.0000 H   0  0  0  0  0  0  0  0  0  0  0  0
    4.2610    7.6130    0.0000 H   0  0  0  0  0  0  0  0  0  0  0  0
    0.2800    5.2880    0.0000 H   0  0  0  0  0  0  0  0  0  0  0  0
   -2.3560    6.7200    0.0000 H   0  0  0  0  0  0  0  0  0  0  0  0
  1  2  1  0  0  0  0
  2  3  2  0  0  0  0
  2 58  1  0  0  0  0
  3  4  1  0  0  0  0
  3 59  1  0  0  0  0
  4  5  2  0  0  0  0
  4  8  1  0  0  0  0
  5  6  1  0  0  0  0
  5 57  1  0  0  0  0
  6  7  2  0  0  0  0
  6 38  1  0  0  0  0
  7  8  1  0  0  0  0
  7  9  1  0  0  0  0
  8 60  1  0  0  0  0
  9 10  2  0  0  0  0
  9 13  1  0  0  0  0
 10 11  1  0  0  0  0
 10 19  1  0  0  0  0
 11 12  2  0  0  0  0
 11 18  1  0  0  0  0
 12 13  1  0  0  0  0
 12 14  1  0  0  0  0
 13 61  1  0  0  0  0
 14 15  2  0  0  0  0
 14 62  1  0  0  0  0
 15 16  1  0  0  0  0
 15 17  1  0  0  0  0
 17 18  2  0  0  0  0
 17 63  1  0  0  0  0
 18 64  1  0  0  0  0
 19 20  1  0  0  0  0
 19 65  1  0  0  0  0
 19 66  1  0  0  0  0
 20 21  1  0  0  0  0
 20 36  1  0  0  0  0
 20 67  1  1  0  0  0
 21 22  1  0  0  0  0
 21 34  1  0  0  0  0
 22 23  2  0  0  0  0
 22 24  1  0  0  0  0
 24 25  1  0  0  0  0
 24 32  1  0  0  0  0
 24 68  1  1  0  0  0
 25 26  1  0  0  0  0
 25 69  1  0  0  0  0
 26 27  2  0  0  0  0
 26 28  1  0  0  0  0
 28 29  1  0  0  0  0
 28 31  1  0  0  0  0
 28 70  1  6  0  0  0
 29 30  1  0  0  0  0
 29 71  1  0  0  0  0
 30 72  1  0  0  0  0
 30 73  1  0  0  0  0
 30 74  1  0  0  0  0
 31 75  1  0  0  0  0
 31 76  1  0  0  0  0
 31 77  1  0  0  0  0
 32 33  1  0  0  0  0
 32 78  1  0  0  0  0
 32 79  1  0  0  0  0
 33 80  1  0  0  0  0
 33 81  1  0  0  0  0
 33 82  1  0  0  0  0
 34 35  1  0  0  0  0
 34 83  1  0  0  0  0
 34 84  1  0  0  0  0
 35 36  1  0  0  0  0
 35 37  1  0  0  0  0
 35 85  1  6  0  0  0
 36 86  1  0  0  0  0
 36 87  1  0  0  0  0
 37 88  1  0  0  0  0
 38 39  1  0  0  0  0
 38 89  1  0  0  0  0
 38 90  1  0  0  0  0
 39 40  1  0  0  0  0
 39 55  1  0  0  0  0
 39 91  1  1  0  0  0
 40 41  1  0  0  0  0
 40 53  1  0  0  0  0
 41 42  2  0  0  0  0
 41 43  1  0  0  0  0
 43 44  1  0  0  0  0
 43 51  1  0  0  0  0
 43 92  1  1  0  0  0
 44 45  1  0  0  0  0
 44 93  1  0  0  0  0
 45 46  2  0  0  0  0
 45 47  1  0  0  0  0
 47 48  1  0  0  0  0
 47 50  1  0  0  0  0
 47 94  1  6  0  0  0
 48 49  1  0  0  0  0
 48 95  1  0  0  0  0
 49 96  1  0  0  0  0
 49 97  1  0  0  0  0
 49 98  1  0  0  0  0
 50 99  1  0  0  0  0
 50100  1  0  0  0  0
 50101  1  0  0  0  0
 51 52  1  0  0  0  0
 51102  1  0  0  0  0
 51103  1  0  0  0  0
 52104  1  0  0  0  0
 52105  1  0  0  0  0
 52106  1  0  0  0  0
 53 54  1  0  0  0  0
 53107  1  0  0  0  0
 53108  1  0  0  0  0
 54 55  1  0  0  0  0
 54 56  1  0  0  0  0
 54109  1  6  0  0  0
 55110  1  0  0  0  0
 55111  1  0  0  0  0
 56112  1  0  0  0  0
 57 58  2  0  0  0  0
 57113  1  0  0  0  0
 58114  1  0  0  0  0
M  END
$$$$
