2D_structures\o17_MMV003297_2D.pdb
 OpenBabel02282413353D

 67 71  0  0  1  0  0  0  0  0999 V2000
    6.8160    3.2660    0.0000 C   0  0  0  0  0  0  0  0  0  0  0  0
    5.3510    2.9450    0.0000 C   0  0  0  0  0  0  0  0  0  0  0  0
    3.8860    2.6240    0.0000 C   0  0  0  0  0  0  0  0  0  0  0  0
    2.4200    2.3040    0.0000 C   0  0  1  0  0  0  0  0  0  0  0  0
    2.8920    0.8800    0.0000 O   0  0  0  0  0  0  0  0  0  0  0  0
    2.2550    3.7940    0.0000 C   0  0  0  0  0  0  0  0  0  0  0  0
    0.7850    4.0980    0.0000 C   0  0  0  0  0  0  0  0  0  0  0  0
    0.0430    2.7940    0.0000 C   0  0  1  0  0  0  0  0  0  0  0  0
   -1.4220    2.4730    0.0000 C   0  0  1  0  0  0  0  0  0  0  0  0
   -2.4320    3.5820    0.0000 C   0  0  0  0  0  0  0  0  0  0  0  0
   -3.8980    3.2610    0.0000 C   0  0  0  0  0  0  0  0  0  0  0  0
   -4.3530    1.8320    0.0000 C   0  0  0  0  0  0  0  0  0  0  0  0
   -5.8180    1.5110    0.0000 C   0  0  0  0  0  0  0  0  0  0  0  0
   -6.2730    0.0820    0.0000 C   0  0  0  0  0  0  0  0  0  0  0  0
   -7.7380   -0.2390    0.0000 O   0  0  0  0  0  0  0  0  0  0  0  0
   -5.2630   -1.0270    0.0000 C   0  0  0  0  0  0  0  0  0  0  0  0
   -3.7970   -0.7060    0.0000 C   0  0  0  0  0  0  0  0  0  0  0  0
   -3.3420    0.7230    0.0000 C   0  0  0  0  0  0  0  0  0  0  0  0
   -1.8770    1.0440    0.0000 C   0  0  0  0  0  0  0  0  0  0  0  0
   -0.8670   -0.0650    0.0000 C   0  0  1  0  0  0  0  0  0  0  0  0
    0.5990    0.2560    0.0000 C   0  0  0  0  0  0  0  0  0  0  0  0
    1.0540    1.6850    0.0000 C   0  0  1  0  0  0  0  0  0  0  0  0
    2.1740    0.6880    0.0000 C   0  0  0  0  0  0  0  0  0  0  0  0
   -0.2960   -1.4520    0.0000 C   0  0  0  0  0  0  0  0  0  0  0  0
   -1.2130   -2.6400    0.0000 C   0  0  0  0  0  0  0  0  0  0  0  0
   -0.6430   -4.0270    0.0000 C   0  0  0  0  0  0  0  0  0  0  0  0
    0.8440   -4.2270    0.0000 C   0  0  0  0  0  0  0  0  0  0  0  0
    1.7600   -3.0390    0.0000 C   0  0  0  0  0  0  0  0  0  0  0  0
    1.1900   -1.6520    0.0000 C   0  0  0  0  0  0  0  0  0  0  0  0
    1.4140   -5.6140    0.0000 N   0  0  0  0  0  0  0  0  0  0  0  0
    2.9010   -5.8140    0.0000 C   0  0  0  0  0  0  0  0  0  0  0  0
    0.4980   -6.8020    0.0000 C   0  0  0  0  0  0  0  0  0  0  0  0
    8.2820    3.5860    0.0000 H   0  0  0  0  0  0  0  0  0  0  0  0
    7.1370    1.8000    0.0000 H   0  0  0  0  0  0  0  0  0  0  0  0
    6.4960    4.7310    0.0000 H   0  0  0  0  0  0  0  0  0  0  0  0
    4.3610    0.5770    0.0000 H   0  0  0  0  0  0  0  0  0  0  0  0
    2.4020    5.2870    0.0000 H   0  0  0  0  0  0  0  0  0  0  0  0
    3.7540    3.8030    0.0000 H   0  0  0  0  0  0  0  0  0  0  0  0
   -0.4020    5.0140    0.0000 H   0  0  0  0  0  0  0  0  0  0  0  0
    1.2400    5.5270    0.0000 H   0  0  0  0  0  0  0  0  0  0  0  0
   -0.8460    4.0020    0.0000 H   0  0  0  0  0  0  0  0  0  0  0  0
   -2.8870    2.1530    0.0000 H   0  0  0  0  0  0  0  0  0  0  0  0
   -3.0030    4.9690    0.0000 H   0  0  0  0  0  0  0  0  0  0  0  0
   -1.3970    4.6670    0.0000 H   0  0  0  0  0  0  0  0  0  0  0  0
   -5.3840    3.4610    0.0000 H   0  0  0  0  0  0  0  0  0  0  0  0
   -3.9590    4.7600    0.0000 H   0  0  0  0  0  0  0  0  0  0  0  0
   -6.8280    2.6200    0.0000 H   0  0  0  0  0  0  0  0  0  0  0  0
   -4.6920   -2.4140    0.0000 H   0  0  0  0  0  0  0  0  0  0  0  0
   -6.5300   -1.8290    0.0000 H   0  0  0  0  0  0  0  0  0  0  0  0
   -2.3460   -1.0860    0.0000 H   0  0  0  0  0  0  0  0  0  0  0  0
   -3.7360   -2.2050    0.0000 H   0  0  0  0  0  0  0  0  0  0  0  0
   -2.0270   -1.0160    0.0000 H   0  0  0  0  0  0  0  0  0  0  0  0
    2.0500   -0.1240    0.0000 H   0  0  0  0  0  0  0  0  0  0  0  0
    1.0210   -1.1830    0.0000 H   0  0  0  0  0  0  0  0  0  0  0  0
    3.2950   -0.3090    0.0000 H   0  0  0  0  0  0  0  0  0  0  0  0
    3.1710    1.8090    0.0000 H   0  0  0  0  0  0  0  0  0  0  0  0
    1.1770   -0.4320    0.0000 H   0  0  0  0  0  0  0  0  0  0  0  0
   -2.6990   -2.4400    0.0000 H   0  0  0  0  0  0  0  0  0  0  0  0
   -1.5590   -5.2140    0.0000 H   0  0  0  0  0  0  0  0  0  0  0  0
    3.2470   -3.2390    0.0000 H   0  0  0  0  0  0  0  0  0  0  0  0
    2.2450   -0.5850    0.0000 H   0  0  0  0  0  0  0  0  0  0  0  0
    4.3880   -6.0140    0.0000 H   0  0  0  0  0  0  0  0  0  0  0  0
    2.7010   -7.3010    0.0000 H   0  0  0  0  0  0  0  0  0  0  0  0
    3.1010   -4.3270    0.0000 H   0  0  0  0  0  0  0  0  0  0  0  0
   -0.4180   -7.9890    0.0000 H   0  0  0  0  0  0  0  0  0  0  0  0
    1.6850   -7.7180    0.0000 H   0  0  0  0  0  0  0  0  0  0  0  0
   -0.6900   -5.8850    0.0000 H   0  0  0  0  0  0  0  0  0  0  0  0
  1  2  1  0  0  0  0
  1 33  1  0  0  0  0
  1 34  1  0  0  0  0
  1 35  1  0  0  0  0
  2  3  3  0  0  0  0
  4  3  1  6  0  0  0
  4  5  1  0  0  0  0
  4  6  1  0  0  0  0
  4 22  1  0  0  0  0
  5 36  1  0  0  0  0
  6  7  1  0  0  0  0
  6 37  1  0  0  0  0
  6 38  1  0  0  0  0
  7  8  1  0  0  0  0
  7 39  1  0  0  0  0
  7 40  1  0  0  0  0
  8  9  1  0  0  0  0
  8 22  1  0  0  0  0
  8 41  1  1  0  0  0
  9 10  1  0  0  0  0
  9 19  1  0  0  0  0
  9 42  1  1  0  0  0
 10 11  1  0  0  0  0
 10 43  1  0  0  0  0
 10 44  1  0  0  0  0
 11 12  1  0  0  0  0
 11 45  1  0  0  0  0
 11 46  1  0  0  0  0
 12 13  2  0  0  0  0
 12 18  1  0  0  0  0
 13 14  1  0  0  0  0
 13 47  1  0  0  0  0
 14 15  2  0  0  0  0
 14 16  1  0  0  0  0
 16 17  1  0  0  0  0
 16 48  1  0  0  0  0
 16 49  1  0  0  0  0
 17 18  1  0  0  0  0
 17 50  1  0  0  0  0
 17 51  1  0  0  0  0
 18 19  2  0  0  0  0
 19 20  1  0  0  0  0
 20 21  1  0  0  0  0
 20 24  1  0  0  0  0
 20 52  1  6  0  0  0
 21 22  1  0  0  0  0
 21 53  1  0  0  0  0
 21 54  1  0  0  0  0
 22 23  1  1  0  0  0
 23 55  1  0  0  0  0
 23 56  1  0  0  0  0
 23 57  1  0  0  0  0
 24 25  2  0  0  0  0
 24 29  1  0  0  0  0
 25 26  1  0  0  0  0
 25 58  1  0  0  0  0
 26 27  2  0  0  0  0
 26 59  1  0  0  0  0
 27 28  1  0  0  0  0
 27 30  1  0  0  0  0
 28 29  2  0  0  0  0
 28 60  1  0  0  0  0
 29 61  1  0  0  0  0
 30 31  1  0  0  0  0
 30 32  1  0  0  0  0
 31 62  1  0  0  0  0
 31 63  1  0  0  0  0
 31 64  1  0  0  0  0
 32 65  1  0  0  0  0
 32 66  1  0  0  0  0
 32 67  1  0  0  0  0
M  END
$$$$
