2D_structures\o20_MMV098836_2D.pdb
 OpenBabel02282413353D

 39 41  0  0  0  0  0  0  0  0999 V2000
    3.0290    4.1510    0.0000 C   0  0  0  0  0  0  0  0  0  0  0  0
    1.9060    3.1560    0.0000 O   0  0  0  0  0  0  0  0  0  0  0  0
    2.2060    1.6860    0.0000 C   0  0  0  0  0  0  0  0  0  0  0  0
    1.0830    0.6920    0.0000 C   0  0  0  0  0  0  0  0  0  0  0  0
    1.3820   -0.7780    0.0000 C   0  0  0  0  0  0  0  0  0  0  0  0
    0.2600   -1.7720    0.0000 N   0  0  0  0  0  0  0  0  0  0  0  0
   -1.1630   -1.2970    0.0000 S   0  0  0  0  0  0  0  0  0  0  0  0
   -0.6880    0.1260    0.0000 O   0  0  0  0  0  0  0  0  0  0  0  0
   -1.6380   -2.7200    0.0000 O   0  0  0  0  0  0  0  0  0  0  0  0
   -2.5860   -0.8220    0.0000 C   0  0  0  0  0  0  0  0  0  0  0  0
   -2.8860    0.6480    0.0000 C   0  0  0  0  0  0  0  0  0  0  0  0
   -4.3080    1.1230    0.0000 C   0  0  0  0  0  0  0  0  0  0  0  0
   -5.4310    0.1290    0.0000 C   0  0  0  0  0  0  0  0  0  0  0  0
   -6.8540    0.6040    0.0000 C   0  0  0  0  0  0  0  0  0  0  0  0
   -5.1320   -1.3410    0.0000 C   0  0  0  0  0  0  0  0  0  0  0  0
   -3.7090   -1.8160    0.0000 C   0  0  0  0  0  0  0  0  0  0  0  0
    2.8050   -1.2530    0.0000 C   0  0  0  0  0  0  0  0  0  0  0  0
    3.1050   -2.7230    0.0000 N   0  0  0  0  0  0  0  0  0  0  0  0
    4.5280   -3.1980    0.0000 C   0  0  0  0  0  0  0  0  0  0  0  0
    5.6510   -2.2040    0.0000 C   0  0  0  0  0  0  0  0  0  0  0  0
    5.3510   -0.7340    0.0000 C   0  0  0  0  0  0  0  0  0  0  0  0
    3.9280   -0.2590    0.0000 C   0  0  0  0  0  0  0  0  0  0  0  0
    3.6280    1.2110    0.0000 C   0  0  0  0  0  0  0  0  0  0  0  0
    4.1520    5.1450    0.0000 H   0  0  0  0  0  0  0  0  0  0  0  0
    2.0340    5.2740    0.0000 H   0  0  0  0  0  0  0  0  0  0  0  0
    4.0230    3.0280    0.0000 H   0  0  0  0  0  0  0  0  0  0  0  0
   -0.3400    1.1670    0.0000 H   0  0  0  0  0  0  0  0  0  0  0  0
    0.5590   -3.2420    0.0000 H   0  0  0  0  0  0  0  0  0  0  0  0
   -1.7630    1.6420    0.0000 H   0  0  0  0  0  0  0  0  0  0  0  0
   -4.6080    2.5930    0.0000 H   0  0  0  0  0  0  0  0  0  0  0  0
   -8.2770    1.0790    0.0000 H   0  0  0  0  0  0  0  0  0  0  0  0
   -7.3290   -0.8190    0.0000 H   0  0  0  0  0  0  0  0  0  0  0  0
   -6.3790    2.0270    0.0000 H   0  0  0  0  0  0  0  0  0  0  0  0
   -6.2550   -2.3360    0.0000 H   0  0  0  0  0  0  0  0  0  0  0  0
   -3.4090   -3.2860    0.0000 H   0  0  0  0  0  0  0  0  0  0  0  0
    4.8270   -4.6680    0.0000 H   0  0  0  0  0  0  0  0  0  0  0  0
    7.0730   -2.6790    0.0000 H   0  0  0  0  0  0  0  0  0  0  0  0
    6.4740    0.2610    0.0000 H   0  0  0  0  0  0  0  0  0  0  0  0
    4.7510    2.2060    0.0000 H   0  0  0  0  0  0  0  0  0  0  0  0
  1  2  1  0  0  0  0
  1 24  1  0  0  0  0
  1 25  1  0  0  0  0
  1 26  1  0  0  0  0
  2  3  1  0  0  0  0
  3  4  2  0  0  0  0
  3 23  1  0  0  0  0
  4  5  1  0  0  0  0
  4 27  1  0  0  0  0
  5  6  1  0  0  0  0
  5 17  2  0  0  0  0
  6  7  1  0  0  0  0
  6 28  1  0  0  0  0
  7  8  2  0  0  0  0
  7  9  2  0  0  0  0
  7 10  1  0  0  0  0
 10 11  2  0  0  0  0
 10 16  1  0  0  0  0
 11 12  1  0  0  0  0
 11 29  1  0  0  0  0
 12 13  2  0  0  0  0
 12 30  1  0  0  0  0
 13 14  1  0  0  0  0
 13 15  1  0  0  0  0
 14 31  1  0  0  0  0
 14 32  1  0  0  0  0
 14 33  1  0  0  0  0
 15 16  2  0  0  0  0
 15 34  1  0  0  0  0
 16 35  1  0  0  0  0
 17 18  1  0  0  0  0
 17 22  1  0  0  0  0
 18 19  2  0  0  0  0
 19 20  1  0  0  0  0
 19 36  1  0  0  0  0
 20 21  2  0  0  0  0
 20 37  1  0  0  0  0
 21 22  1  0  0  0  0
 21 38  1  0  0  0  0
 22 23  2  0  0  0  0
 23 39  1  0  0  0  0
M  END
$$$$
