2D_structures\o27_MMV1633968_2D.pdb
 OpenBabel02282413353D

 41 44  0  0  0  0  0  0  0  0999 V2000
   -9.2760   -1.1050    0.0000 F   0  0  0  0  0  0  0  0  0  0  0  0
   -7.8300   -0.7080    0.0000 C   0  0  0  0  0  0  0  0  0  0  0  0
   -8.2270    0.7380    0.0000 F   0  0  0  0  0  0  0  0  0  0  0  0
   -7.4320   -2.1550    0.0000 F   0  0  0  0  0  0  0  0  0  0  0  0
   -6.3830   -0.3110    0.0000 C   0  0  0  0  0  0  0  0  0  0  0  0
   -6.0040    1.1400    0.0000 C   0  0  0  0  0  0  0  0  0  0  0  0
   -4.5570    1.5370    0.0000 C   0  0  0  0  0  0  0  0  0  0  0  0
   -3.4900    0.4830    0.0000 C   0  0  0  0  0  0  0  0  0  0  0  0
   -2.0440    0.8800    0.0000 N   0  0  0  0  0  0  0  0  0  0  0  0
   -0.9770   -0.1740    0.0000 C   0  0  0  0  0  0  0  0  0  0  0  0
   -1.2020   -1.6570    0.0000 N   0  0  0  0  0  0  0  0  0  0  0  0
    0.1390   -2.3300    0.0000 N   0  0  0  0  0  0  0  0  0  0  0  0
    1.1930   -1.2620    0.0000 C   0  0  0  0  0  0  0  0  0  0  0  0
    2.6910   -1.3320    0.0000 N   0  0  0  0  0  4  0  0  0  0  0  0
    3.5000   -0.0690    0.0000 C   0  0  0  0  0  0  0  0  0  0  0  0
    2.8110    1.2640    0.0000 N   0  0  0  0  0  0  0  0  0  0  0  0
    1.3130    1.3330    0.0000 C   0  0  0  0  0  0  0  0  0  0  0  0
    0.5040    0.0700    0.0000 C   0  0  0  0  0  0  0  0  0  0  0  0
    0.6240    2.6650    0.0000 N   0  0  0  0  0  0  0  0  0  0  0  0
    4.9990   -0.1380    0.0000 C   0  0  0  0  0  0  0  0  0  0  0  0
    5.6880   -1.4700    0.0000 C   0  0  0  0  0  0  0  0  0  0  0  0
    7.1860   -1.5400    0.0000 C   0  0  0  0  0  0  0  0  0  0  0  0
    7.9950   -0.2770    0.0000 C   0  0  0  0  0  0  0  0  0  0  0  0
    7.3060    1.0560    0.0000 C   0  0  0  0  0  0  0  0  0  0  0  0
    5.8080    1.1250    0.0000 C   0  0  0  0  0  0  0  0  0  0  0  0
   -3.8700   -0.9680    0.0000 C   0  0  0  0  0  0  0  0  0  0  0  0
   -5.3160   -1.3650    0.0000 C   0  0  0  0  0  0  0  0  0  0  0  0
   -7.0710    2.1940    0.0000 H   0  0  0  0  0  0  0  0  0  0  0  0
   -4.1780    2.9880    0.0000 H   0  0  0  0  0  0  0  0  0  0  0  0
   -1.8440    2.3670    0.0000 H   0  0  0  0  0  0  0  0  0  0  0  0
    0.3820   -3.8100    0.0000 H   0  0  0  0  0  0  0  0  0  0  0  0
   -0.8550    2.9170    0.0000 H   0  0  0  0  0  0  0  0  0  0  0  0
    1.4330    3.9280    0.0000 H   0  0  0  0  0  0  0  0  0  0  0  0
    4.8790   -2.7330    0.0000 H   0  0  0  0  0  0  0  0  0  0  0  0
    7.8750   -2.8720    0.0000 H   0  0  0  0  0  0  0  0  0  0  0  0
    9.4940   -0.3460    0.0000 H   0  0  0  0  0  0  0  0  0  0  0  0
    8.1160    2.3190    0.0000 H   0  0  0  0  0  0  0  0  0  0  0  0
    5.1190    2.4570    0.0000 H   0  0  0  0  0  0  0  0  0  0  0  0
   -2.8020   -2.0220    0.0000 H   0  0  0  0  0  0  0  0  0  0  0  0
   -5.6950   -2.8170    0.0000 H   0  0  0  0  0  0  0  0  0  0  0  0
    3.3422    2.0929    0.0000 H   0  0  0  0  0  0  0  0  0  0  0  0
  1  2  1  0  0  0  0
  2  3  1  0  0  0  0
  2  4  1  0  0  0  0
  2  5  1  0  0  0  0
  5  6  2  0  0  0  0
  5 27  1  0  0  0  0
  6  7  1  0  0  0  0
  6 28  1  0  0  0  0
  7  8  2  0  0  0  0
  7 29  1  0  0  0  0
  8  9  1  0  0  0  0
  8 26  1  0  0  0  0
  9 10  1  0  0  0  0
  9 30  1  0  0  0  0
 10 11  2  0  0  0  0
 10 18  1  0  0  0  0
 11 12  1  0  0  0  0
 12 13  1  0  0  0  0
 12 31  1  0  0  0  0
 13 14  2  0  0  0  0
 13 18  1  0  0  0  0
 14 15  2  0  0  0  0
 15 16  1  0  0  0  0
 15 20  1  0  0  0  0
 16 17  1  0  0  0  0
 16 41  1  0  0  0  0
 17 18  2  0  0  0  0
 17 19  1  0  0  0  0
 19 32  1  0  0  0  0
 19 33  1  0  0  0  0
 20 21  2  0  0  0  0
 20 25  1  0  0  0  0
 21 22  1  0  0  0  0
 21 34  1  0  0  0  0
 22 23  2  0  0  0  0
 22 35  1  0  0  0  0
 23 24  1  0  0  0  0
 23 36  1  0  0  0  0
 24 25  2  0  0  0  0
 24 37  1  0  0  0  0
 25 38  1  0  0  0  0
 26 27  2  0  0  0  0
 26 39  1  0  0  0  0
 27 40  1  0  0  0  0
M  END
$$$$
