2D_structures\o28_MMV688991_2D.pdb
 OpenBabel02282413353D

 30 31  0  0  0  0  0  0  0  0999 V2000
   -3.3080   -0.4830    0.0000 S   0  0  0  0  0  0  0  0  0  0  0  0
   -2.9230    0.9670    0.0000 C   0  0  0  0  0  0  0  0  0  0  0  0
   -4.1830    1.7810    0.0000 N   0  0  0  0  0  0  0  0  0  0  0  0
   -5.3470    0.8340    0.0000 C   0  0  0  0  0  0  0  0  0  0  0  0
   -4.8050   -0.5650    0.0000 C   0  0  0  0  0  0  0  0  0  0  0  0
   -5.6190   -1.8250    0.0000 N   0  3  0  0  0  0  0  0  0  0  0  0
   -4.9350   -3.1600    0.0000 O   0  5  0  0  0  0  0  0  0  0  0  0
   -7.1170   -1.7510    0.0000 O   0  0  0  0  0  0  0  0  0  0  0  0
   -1.5240    1.5080    0.0000 N   0  0  0  0  0  0  0  0  0  0  0  0
   -0.3560    0.5680    0.0000 C   0  0  0  0  0  0  0  0  0  0  0  0
   -0.5870   -0.9150    0.0000 O   0  0  0  0  0  0  0  0  0  0  0  0
    1.0430    1.1090    0.0000 C   0  0  0  0  0  0  0  0  0  0  0  0
    2.2110    0.1680    0.0000 C   0  0  0  0  0  0  0  0  0  0  0  0
    1.9800   -1.3140    0.0000 O   0  0  0  0  0  0  0  0  0  0  0  0
    3.1480   -2.2550    0.0000 C   0  0  0  0  0  0  0  0  0  0  0  0
    4.5470   -1.7140    0.0000 O   0  0  0  0  0  0  0  0  0  0  0  0
    2.9180   -3.7370    0.0000 C   0  0  0  0  0  0  0  0  0  0  0  0
    3.6100    0.7090    0.0000 C   0  0  0  0  0  0  0  0  0  0  0  0
    3.8410    2.1910    0.0000 C   0  0  0  0  0  0  0  0  0  0  0  0
    2.6730    3.1320    0.0000 C   0  0  0  0  0  0  0  0  0  0  0  0
    1.2740    2.5910    0.0000 C   0  0  0  0  0  0  0  0  0  0  0  0
   -6.7960    1.2180    0.0000 H   0  0  0  0  0  0  0  0  0  0  0  0
   -1.2930    2.9910    0.0000 H   0  0  0  0  0  0  0  0  0  0  0  0
    2.6870   -5.2200    0.0000 H   0  0  0  0  0  0  0  0  0  0  0  0
    4.4000   -3.9680    0.0000 H   0  0  0  0  0  0  0  0  0  0  0  0
    1.4360   -3.5070    0.0000 H   0  0  0  0  0  0  0  0  0  0  0  0
    4.7780   -0.2320    0.0000 H   0  0  0  0  0  0  0  0  0  0  0  0
    5.2400    2.7320    0.0000 H   0  0  0  0  0  0  0  0  0  0  0  0
    2.9030    4.6140    0.0000 H   0  0  0  0  0  0  0  0  0  0  0  0
    0.1060    3.5320    0.0000 H   0  0  0  0  0  0  0  0  0  0  0  0
  1  2  1  0  0  0  0
  1  5  1  0  0  0  0
  2  3  2  0  0  0  0
  2  9  1  0  0  0  0
  3  4  1  0  0  0  0
  4  5  2  0  0  0  0
  4 22  1  0  0  0  0
  5  6  1  0  0  0  0
  6  7  1  0  0  0  0
  6  8  2  0  0  0  0
  9 10  1  0  0  0  0
  9 23  1  0  0  0  0
 10 11  2  0  0  0  0
 10 12  1  0  0  0  0
 12 13  2  0  0  0  0
 12 21  1  0  0  0  0
 13 14  1  0  0  0  0
 13 18  1  0  0  0  0
 14 15  1  0  0  0  0
 15 16  2  0  0  0  0
 15 17  1  0  0  0  0
 17 24  1  0  0  0  0
 17 25  1  0  0  0  0
 17 26  1  0  0  0  0
 18 19  2  0  0  0  0
 18 27  1  0  0  0  0
 19 20  1  0  0  0  0
 19 28  1  0  0  0  0
 20 21  2  0  0  0  0
 20 29  1  0  0  0  0
 21 30  1  0  0  0  0
M  CHG  2   6   1   7  -1
M  END
$$$$
