2D_structures\o2_MMV1580480_2D.pdb
 OpenBabel02282413353D

 39 41  0  0  0  0  0  0  0  0999 V2000
    6.4460   -2.2880    0.0000 O   0  0  0  0  0  0  0  0  0  0  0  0
    5.0880   -1.6510    0.0000 C   0  0  0  0  0  0  0  0  0  0  0  0
    3.8570   -2.5090    0.0000 N   0  0  0  0  0  0  0  0  0  0  0  0
    2.4990   -1.8720    0.0000 C   0  0  0  0  0  0  0  0  0  0  0  0
    2.3720   -0.3770    0.0000 C   0  0  0  0  0  0  0  0  0  0  0  0
    1.0140    0.2600    0.0000 C   0  0  0  0  0  0  0  0  0  0  0  0
   -0.2170   -0.5970    0.0000 C   0  0  0  0  0  0  0  0  0  0  0  0
   -1.5750    0.0400    0.0000 N   0  0  0  0  0  0  0  0  0  0  0  0
   -2.8050   -0.8180    0.0000 C   0  0  0  0  0  0  0  0  0  0  0  0
   -2.6780   -2.3130    0.0000 O   0  0  0  0  0  0  0  0  0  0  0  0
   -4.1630   -0.1810    0.0000 C   0  0  0  0  0  0  0  0  0  0  0  0
   -5.5210    0.4560    0.0000 N   0  0  0  0  0  0  0  0  0  0  0  0
   -5.6490    1.9510    0.0000 C   0  0  0  0  0  0  0  0  0  0  0  0
   -6.7520   -0.4010    0.0000 C   0  0  0  0  0  0  0  0  0  0  0  0
   -0.0890   -2.0920    0.0000 C   0  0  0  0  0  0  0  0  0  0  0  0
    1.2690   -2.7290    0.0000 C   0  0  0  0  0  0  0  0  0  0  0  0
    3.6030    0.4810    0.0000 C   0  0  0  0  0  0  0  0  0  0  0  0
    4.9610   -0.1570    0.0000 C   0  0  0  0  0  0  0  0  0  0  0  0
    6.1920    0.7010    0.0000 C   0  0  0  0  0  0  0  0  0  0  0  0
    6.0640    2.1960    0.0000 C   0  0  0  0  0  0  0  0  0  0  0  0
    4.7060    2.8330    0.0000 C   0  0  0  0  0  0  0  0  0  0  0  0
    3.4760    1.9750    0.0000 C   0  0  0  0  0  0  0  0  0  0  0  0
    3.9850   -4.0030    0.0000 H   0  0  0  0  0  0  0  0  0  0  0  0
    0.8870    1.7550    0.0000 H   0  0  0  0  0  0  0  0  0  0  0  0
   -1.7020    1.5340    0.0000 H   0  0  0  0  0  0  0  0  0  0  0  0
   -4.8000   -1.5390    0.0000 H   0  0  0  0  0  0  0  0  0  0  0  0
   -3.5260    1.1770    0.0000 H   0  0  0  0  0  0  0  0  0  0  0  0
   -5.7760    3.4450    0.0000 H   0  0  0  0  0  0  0  0  0  0  0  0
   -7.1430    1.8240    0.0000 H   0  0  0  0  0  0  0  0  0  0  0  0
   -4.1540    2.0780    0.0000 H   0  0  0  0  0  0  0  0  0  0  0  0
   -7.9830   -1.2590    0.0000 H   0  0  0  0  0  0  0  0  0  0  0  0
   -7.6090    0.8290    0.0000 H   0  0  0  0  0  0  0  0  0  0  0  0
   -5.8940   -1.6320    0.0000 H   0  0  0  0  0  0  0  0  0  0  0  0
   -1.3200   -2.9500    0.0000 H   0  0  0  0  0  0  0  0  0  0  0  0
    1.3960   -4.2240    0.0000 H   0  0  0  0  0  0  0  0  0  0  0  0
    7.5500    0.0640    0.0000 H   0  0  0  0  0  0  0  0  0  0  0  0
    7.2950    3.0530    0.0000 H   0  0  0  0  0  0  0  0  0  0  0  0
    4.5790    4.3270    0.0000 H   0  0  0  0  0  0  0  0  0  0  0  0
    2.1180    2.6120    0.0000 H   0  0  0  0  0  0  0  0  0  0  0  0
  1  2  2  0  0  0  0
  2  3  1  0  0  0  0
  2 18  1  0  0  0  0
  3  4  1  0  0  0  0
  3 23  1  0  0  0  0
  4  5  2  0  0  0  0
  4 16  1  0  0  0  0
  5  6  1  0  0  0  0
  5 17  1  0  0  0  0
  6  7  2  0  0  0  0
  6 24  1  0  0  0  0
  7  8  1  0  0  0  0
  7 15  1  0  0  0  0
  8  9  1  0  0  0  0
  8 25  1  0  0  0  0
  9 10  2  0  0  0  0
  9 11  1  0  0  0  0
 11 12  1  0  0  0  0
 11 26  1  0  0  0  0
 11 27  1  0  0  0  0
 12 13  1  0  0  0  0
 12 14  1  0  0  0  0
 13 28  1  0  0  0  0
 13 29  1  0  0  0  0
 13 30  1  0  0  0  0
 14 31  1  0  0  0  0
 14 32  1  0  0  0  0
 14 33  1  0  0  0  0
 15 16  2  0  0  0  0
 15 34  1  0  0  0  0
 16 35  1  0  0  0  0
 17 18  2  0  0  0  0
 17 22  1  0  0  0  0
 18 19  1  0  0  0  0
 19 20  2  0  0  0  0
 19 36  1  0  0  0  0
 20 21  1  0  0  0  0
 20 37  1  0  0  0  0
 21 22  2  0  0  0  0
 21 38  1  0  0  0  0
 22 39  1  0  0  0  0
M  END
$$$$
