2D_structures\o36_MMV1580490_2D.pdb
 OpenBabel02282413353D

 38 40  0  0  0  0  0  0  0  0999 V2000
    6.7500   -0.1370    0.0000 N   0  0  0  0  0  0  0  0  0  0  0  0
    5.2500   -0.1370    0.0000 C   0  0  0  0  0  0  0  0  0  0  0  0
    4.5000    1.1620    0.0000 N   0  0  0  0  0  0  0  0  0  0  0  0
    5.2500    2.4610    0.0000 C   0  0  0  0  0  0  0  0  0  0  0  0
    6.7500    2.4610    0.0000 C   0  0  0  0  0  0  0  0  0  0  0  0
    7.5000    1.1620    0.0000 C   0  0  0  0  0  0  0  0  0  0  0  0
    4.5000   -1.4360    0.0000 N   0  0  0  0  0  0  0  0  0  0  0  0
    3.0000   -1.4360    0.0000 C   0  0  0  0  0  0  0  0  0  0  0  0
    1.5000   -1.4360    0.0000 C   0  0  0  0  0  0  0  0  0  0  0  0
    0.7500   -0.1370    0.0000 C   0  0  0  0  0  0  0  0  0  0  0  0
   -0.7500   -0.1370    0.0000 C   0  0  0  0  0  0  0  0  0  0  0  0
   -1.5000   -1.4360    0.0000 C   0  0  0  0  0  0  0  0  0  0  0  0
   -3.0000   -1.4360    0.0000 C   0  0  0  0  0  0  0  0  0  0  0  0
   -4.5000   -1.4360    0.0000 N   0  0  0  0  0  0  0  0  0  0  0  0
   -5.2500   -0.1370    0.0000 C   0  0  0  0  0  0  0  0  0  0  0  0
   -4.5000    1.1620    0.0000 N   0  0  0  0  0  0  0  0  0  0  0  0
   -5.2500    2.4610    0.0000 C   0  0  0  0  0  0  0  0  0  0  0  0
   -6.7500    2.4610    0.0000 C   0  0  0  0  0  0  0  0  0  0  0  0
   -7.5000    1.1620    0.0000 C   0  0  0  0  0  0  0  0  0  0  0  0
   -6.7500   -0.1370    0.0000 N   0  0  0  0  0  0  0  0  0  0  0  0
   -0.7500   -2.7350    0.0000 C   0  0  0  0  0  0  0  0  0  0  0  0
    0.7500   -2.7350    0.0000 C   0  0  0  0  0  0  0  0  0  0  0  0
    4.5000    3.7600    0.0000 H   0  0  0  0  0  0  0  0  0  0  0  0
    7.5000    3.7600    0.0000 H   0  0  0  0  0  0  0  0  0  0  0  0
    9.0000    1.1620    0.0000 H   0  0  0  0  0  0  0  0  0  0  0  0
    5.2500   -2.7350    0.0000 H   0  0  0  0  0  0  0  0  0  0  0  0
    3.0000    0.0640    0.0000 H   0  0  0  0  0  0  0  0  0  0  0  0
    3.0000   -2.9360    0.0000 H   0  0  0  0  0  0  0  0  0  0  0  0
    1.5000    1.1620    0.0000 H   0  0  0  0  0  0  0  0  0  0  0  0
   -1.5000    1.1620    0.0000 H   0  0  0  0  0  0  0  0  0  0  0  0
   -3.0000   -2.9360    0.0000 H   0  0  0  0  0  0  0  0  0  0  0  0
   -3.0000    0.0640    0.0000 H   0  0  0  0  0  0  0  0  0  0  0  0
   -5.2500   -2.7350    0.0000 H   0  0  0  0  0  0  0  0  0  0  0  0
   -4.5000    3.7600    0.0000 H   0  0  0  0  0  0  0  0  0  0  0  0
   -7.5000    3.7600    0.0000 H   0  0  0  0  0  0  0  0  0  0  0  0
   -9.0000    1.1620    0.0000 H   0  0  0  0  0  0  0  0  0  0  0  0
   -1.5000   -4.0340    0.0000 H   0  0  0  0  0  0  0  0  0  0  0  0
    1.5000   -4.0340    0.0000 H   0  0  0  0  0  0  0  0  0  0  0  0
  1  2  2  0  0  0  0
  1  6  1  0  0  0  0
  2  3  1  0  0  0  0
  2  7  1  0  0  0  0
  3  4  2  0  0  0  0
  4  5  1  0  0  0  0
  4 23  1  0  0  0  0
  5  6  2  0  0  0  0
  5 24  1  0  0  0  0
  6 25  1  0  0  0  0
  7  8  1  0  0  0  0
  7 26  1  0  0  0  0
  8  9  1  0  0  0  0
  8 27  1  0  0  0  0
  8 28  1  0  0  0  0
  9 10  2  0  0  0  0
  9 22  1  0  0  0  0
 10 11  1  0  0  0  0
 10 29  1  0  0  0  0
 11 12  2  0  0  0  0
 11 30  1  0  0  0  0
 12 13  1  0  0  0  0
 12 21  1  0  0  0  0
 13 14  1  0  0  0  0
 13 31  1  0  0  0  0
 13 32  1  0  0  0  0
 14 15  1  0  0  0  0
 14 33  1  0  0  0  0
 15 16  2  0  0  0  0
 15 20  1  0  0  0  0
 16 17  1  0  0  0  0
 17 18  2  0  0  0  0
 17 34  1  0  0  0  0
 18 19  1  0  0  0  0
 18 35  1  0  0  0  0
 19 20  2  0  0  0  0
 19 36  1  0  0  0  0
 21 22  2  0  0  0  0
 21 37  1  0  0  0  0
 22 38  1  0  0  0  0
M  END
$$$$
