2D_structures\o41_MMV1581035_2D.pdb
 OpenBabel02282413353D

 18 18  0  0  0  0  0  0  0  0999 V2000
    3.0180   -0.9600    0.0000 N   0  0  0  0  0  0  0  0  0  0  0  0
    2.3710    0.3940    0.0000 C   0  0  0  0  0  0  0  0  0  0  0  0
    3.2200    1.6300    0.0000 O   0  0  0  0  0  0  0  0  0  0  0  0
    0.8760    0.5110    0.0000 C   0  0  0  0  0  0  0  0  0  0  0  0
    0.0270   -0.7260    0.0000 C   0  0  0  0  0  0  0  0  0  0  0  0
   -1.4690   -0.6090    0.0000 C   0  0  0  0  0  0  0  0  0  0  0  0
   -2.1150    0.7450    0.0000 C   0  0  0  0  0  0  0  0  0  0  0  0
   -3.6100    0.8620    0.0000 I   0  0  0  0  0  0  0  0  0  0  0  0
   -1.2660    1.9810    0.0000 C   0  0  0  0  0  0  0  0  0  0  0  0
    0.2290    1.8640    0.0000 C   0  0  0  0  0  0  0  0  0  0  0  0
   -2.3180   -1.8460    0.0000 N   0  3  0  0  0  0  0  0  0  0  0  0
   -3.8130   -1.7290    0.0000 O   0  5  0  0  0  0  0  0  0  0  0  0
   -1.6710   -3.1990    0.0000 O   0  0  0  0  0  0  0  0  0  0  0  0
    4.5130   -1.0770    0.0000 H   0  0  0  0  0  0  0  0  0  0  0  0
    2.1690   -2.1970    0.0000 H   0  0  0  0  0  0  0  0  0  0  0  0
    0.6730   -2.0800    0.0000 H   0  0  0  0  0  0  0  0  0  0  0  0
   -1.9120    3.3350    0.0000 H   0  0  0  0  0  0  0  0  0  0  0  0
    1.0790    3.1010    0.0000 H   0  0  0  0  0  0  0  0  0  0  0  0
  1  2  1  0  0  0  0
  1 14  1  0  0  0  0
  1 15  1  0  0  0  0
  2  3  2  0  0  0  0
  2  4  1  0  0  0  0
  4  5  2  0  0  0  0
  4 10  1  0  0  0  0
  5  6  1  0  0  0  0
  5 16  1  0  0  0  0
  6  7  2  0  0  0  0
  6 11  1  0  0  0  0
  7  8  1  0  0  0  0
  7  9  1  0  0  0  0
  9 10  2  0  0  0  0
  9 17  1  0  0  0  0
 10 18  1  0  0  0  0
 11 12  1  0  0  0  0
 11 13  2  0  0  0  0
M  CHG  2  11   1  12  -1
M  END
$$$$
