2D_structures\o45_MMV1581036_2D.pdb
 OpenBabel02282413353D

 56 57  0  0  1  0  0  0  0  0999 V2000
   -6.8090   -2.4190    0.0000 O   0  0  0  0  0  0  0  0  0  0  0  0
   -6.0220   -1.1420    0.0000 C   0  0  0  0  0  0  0  0  0  0  0  0
   -6.7350    0.1780    0.0000 C   0  0  0  0  0  0  0  0  0  0  0  0
   -8.2350    0.2200    0.0000 O   0  0  0  0  0  0  0  0  0  0  0  0
   -8.9480    1.5400    0.0000 C   0  0  0  0  0  0  0  0  0  0  0  0
   -5.9490    1.4550    0.0000 C   0  0  0  0  0  0  0  0  0  0  0  0
   -4.4500    1.4130    0.0000 C   0  0  0  0  0  0  0  0  0  0  0  0
   -3.7370    0.0930    0.0000 C   0  0  0  0  0  0  0  0  0  0  0  0
   -4.5230   -1.1840    0.0000 C   0  0  0  0  0  0  0  0  0  0  0  0
   -2.2370    0.0510    0.0000 C   0  0  0  0  0  0  0  0  0  0  0  0
   -0.7380    0.0090    0.0000 C   0  0  1  0  0  0  0  0  0  0  0  0
    0.7620   -0.0340    0.0000 C   0  0  1  0  0  0  0  0  0  0  0  0
    2.2610   -0.0760    0.0000 C   0  0  0  0  0  0  0  0  0  0  0  0
    3.7600   -0.1180    0.0000 C   0  0  0  0  0  0  0  0  0  0  0  0
    4.5470    1.1590    0.0000 C   0  0  0  0  0  0  0  0  0  0  0  0
    6.0460    1.1160    0.0000 C   0  0  0  0  0  0  0  0  0  0  0  0
    6.7590   -0.2030    0.0000 C   0  0  0  0  0  0  0  0  0  0  0  0
    8.2590   -0.2460    0.0000 O   0  0  0  0  0  0  0  0  0  0  0  0
    8.9720   -1.5650    0.0000 C   0  0  0  0  0  0  0  0  0  0  0  0
    5.9730   -1.4810    0.0000 C   0  0  0  0  0  0  0  0  0  0  0  0
    4.4730   -1.4380    0.0000 C   0  0  0  0  0  0  0  0  0  0  0  0
    6.8330    2.3940    0.0000 O   0  0  0  0  0  0  0  0  0  0  0  0
    8.3320    2.3510    0.0000 C   0  0  0  0  0  0  0  0  0  0  0  0
    0.7190   -1.5330    0.0000 C   0  0  0  0  0  0  0  0  0  0  0  0
   -0.6950    1.5080    0.0000 C   0  0  0  0  0  0  0  0  0  0  0  0
   -8.3080   -2.3770    0.0000 C   0  0  0  0  0  0  0  0  0  0  0  0
   -9.6610    2.8600    0.0000 H   0  0  0  0  0  0  0  0  0  0  0  0
  -10.2680    0.8270    0.0000 H   0  0  0  0  0  0  0  0  0  0  0  0
   -7.6280    2.2530    0.0000 H   0  0  0  0  0  0  0  0  0  0  0  0
   -6.6620    2.7750    0.0000 H   0  0  0  0  0  0  0  0  0  0  0  0
   -3.6630    2.6900    0.0000 H   0  0  0  0  0  0  0  0  0  0  0  0
   -3.8100   -2.5040    0.0000 H   0  0  0  0  0  0  0  0  0  0  0  0
   -2.2800   -1.4480    0.0000 H   0  0  0  0  0  0  0  0  0  0  0  0
   -2.3780    1.5440    0.0000 H   0  0  0  0  0  0  0  0  0  0  0  0
   -0.8710   -0.8670    0.0000 H   0  0  0  0  0  0  0  0  0  0  0  0
    0.8940    0.8420    0.0000 H   0  0  0  0  0  0  0  0  0  0  0  0
    2.3440   -0.9580    0.0000 H   0  0  0  0  0  0  0  0  0  0  0  0
    2.3030    1.4230    0.0000 H   0  0  0  0  0  0  0  0  0  0  0  0
    3.8340    2.4790    0.0000 H   0  0  0  0  0  0  0  0  0  0  0  0
    9.6850   -2.8850    0.0000 H   0  0  0  0  0  0  0  0  0  0  0  0
   10.2910   -0.8520    0.0000 H   0  0  0  0  0  0  0  0  0  0  0  0
    7.6520   -2.2780    0.0000 H   0  0  0  0  0  0  0  0  0  0  0  0
    6.6860   -2.8000    0.0000 H   0  0  0  0  0  0  0  0  0  0  0  0
    3.6870   -2.7160    0.0000 H   0  0  0  0  0  0  0  0  0  0  0  0
    9.8310    2.3090    0.0000 H   0  0  0  0  0  0  0  0  0  0  0  0
    8.3740    3.8510    0.0000 H   0  0  0  0  0  0  0  0  0  0  0  0
    8.2900    0.8520    0.0000 H   0  0  0  0  0  0  0  0  0  0  0  0
    0.6770   -3.0330    0.0000 H   0  0  0  0  0  0  0  0  0  0  0  0
    1.5950   -1.6660    0.0000 H   0  0  0  0  0  0  0  0  0  0  0  0
   -0.1630   -1.6160    0.0000 H   0  0  0  0  0  0  0  0  0  0  0  0
   -0.6530    3.0070    0.0000 H   0  0  0  0  0  0  0  0  0  0  0  0
    0.1860    1.5910    0.0000 H   0  0  0  0  0  0  0  0  0  0  0  0
   -2.1790    1.7330    0.0000 H   0  0  0  0  0  0  0  0  0  0  0  0
   -9.8080   -2.3340    0.0000 H   0  0  0  0  0  0  0  0  0  0  0  0
   -8.3510   -3.8760    0.0000 H   0  0  0  0  0  0  0  0  0  0  0  0
   -8.2660   -0.8770    0.0000 H   0  0  0  0  0  0  0  0  0  0  0  0
  1  2  1  0  0  0  0
  1 26  1  0  0  0  0
  2  3  2  0  0  0  0
  2  9  1  0  0  0  0
  3  4  1  0  0  0  0
  3  6  1  0  0  0  0
  4  5  1  0  0  0  0
  5 27  1  0  0  0  0
  5 28  1  0  0  0  0
  5 29  1  0  0  0  0
  6  7  2  0  0  0  0
  6 30  1  0  0  0  0
  7  8  1  0  0  0  0
  7 31  1  0  0  0  0
  8  9  2  0  0  0  0
  8 10  1  0  0  0  0
  9 32  1  0  0  0  0
 10 11  1  0  0  0  0
 10 33  1  0  0  0  0
 10 34  1  0  0  0  0
 11 12  1  0  0  0  0
 11 25  1  0  0  0  0
 11 35  1  1  0  0  0
 12 13  1  0  0  0  0
 12 24  1  0  0  0  0
 12 36  1  6  0  0  0
 13 14  1  0  0  0  0
 13 37  1  0  0  0  0
 13 38  1  0  0  0  0
 14 15  2  0  0  0  0
 14 21  1  0  0  0  0
 15 16  1  0  0  0  0
 15 39  1  0  0  0  0
 16 17  2  0  0  0  0
 16 22  1  0  0  0  0
 17 18  1  0  0  0  0
 17 20  1  0  0  0  0
 18 19  1  0  0  0  0
 19 40  1  0  0  0  0
 19 41  1  0  0  0  0
 19 42  1  0  0  0  0
 20 21  2  0  0  0  0
 20 43  1  0  0  0  0
 21 44  1  0  0  0  0
 22 23  1  0  0  0  0
 23 45  1  0  0  0  0
 23 46  1  0  0  0  0
 23 47  1  0  0  0  0
 24 48  1  0  0  0  0
 24 49  1  0  0  0  0
 24 50  1  0  0  0  0
 25 51  1  0  0  0  0
 25 52  1  0  0  0  0
 25 53  1  0  0  0  0
 26 54  1  0  0  0  0
 26 55  1  0  0  0  0
 26 56  1  0  0  0  0
M  END
$$$$
