2D_structures\o46_MMV1581030_2D.pdb
 OpenBabel02282413353D

 39 41  0  0  0  0  0  0  0  0999 V2000
    4.5770   -4.2410    0.0000 Cl  0  0  0  0  0  0  0  0  0  0  0  0
    3.7730   -2.9750    0.0000 C   0  0  0  0  0  0  0  0  0  0  0  0
    4.4670   -1.6450    0.0000 C   0  0  0  0  0  0  0  0  0  0  0  0
    3.6620   -0.3790    0.0000 C   0  0  0  0  0  0  0  0  0  0  0  0
    2.1640   -0.4430    0.0000 C   0  0  0  0  0  0  0  0  0  0  0  0
    1.3590    0.8230    0.0000 C   0  0  0  0  0  0  0  0  0  0  0  0
    0.0930    0.0180    0.0000 C   0  0  0  0  0  0  0  0  0  0  0  0
   -0.0260   -1.4770    0.0000 O   0  0  0  0  0  0  0  0  0  0  0  0
   -1.2370    0.7120    0.0000 N   0  0  0  0  0  0  0  0  0  0  0  0
   -2.5030   -0.0920    0.0000 C   0  0  0  0  0  0  0  0  0  0  0  0
   -3.8320    0.6020    0.0000 C   0  0  0  0  0  0  0  0  0  0  0  0
   -5.0980   -0.2030    0.0000 C   0  0  0  0  0  0  0  0  0  0  0  0
   -5.0350   -1.7010    0.0000 C   0  0  0  0  0  0  0  0  0  0  0  0
   -3.7050   -2.3950    0.0000 C   0  0  0  0  0  0  0  0  0  0  0  0
   -2.4390   -1.5910    0.0000 C   0  0  0  0  0  0  0  0  0  0  0  0
   -1.3000    2.2110    0.0000 C   0  0  0  0  0  0  0  0  0  0  0  0
    2.6250    1.6270    0.0000 C   0  0  0  0  0  0  0  0  0  0  0  0
    1.8200    2.8930    0.0000 C   0  0  0  0  0  0  0  0  0  0  0  0
    0.5550    2.0890    0.0000 C   0  0  0  0  0  0  0  0  0  0  0  0
    1.4690   -1.7730    0.0000 C   0  0  0  0  0  0  0  0  0  0  0  0
    2.2740   -3.0390    0.0000 C   0  0  0  0  0  0  0  0  0  0  0  0
    5.9650   -1.5820    0.0000 H   0  0  0  0  0  0  0  0  0  0  0  0
    4.0720    0.4060    0.0000 H   0  0  0  0  0  0  0  0  0  0  0  0
   -3.8960    2.1010    0.0000 H   0  0  0  0  0  0  0  0  0  0  0  0
   -6.4280    0.4920    0.0000 H   0  0  0  0  0  0  0  0  0  0  0  0
   -6.3010   -2.5060    0.0000 H   0  0  0  0  0  0  0  0  0  0  0  0
   -3.6410   -3.8940    0.0000 H   0  0  0  0  0  0  0  0  0  0  0  0
   -1.1090   -2.2850    0.0000 H   0  0  0  0  0  0  0  0  0  0  0  0
   -1.3640    3.7100    0.0000 H   0  0  0  0  0  0  0  0  0  0  0  0
   -0.5360    2.4370    0.0000 H   0  0  0  0  0  0  0  0  0  0  0  0
   -2.7990    2.1470    0.0000 H   0  0  0  0  0  0  0  0  0  0  0  0
    3.8910    2.4320    0.0000 H   0  0  0  0  0  0  0  0  0  0  0  0
    3.2670    1.0170    0.0000 H   0  0  0  0  0  0  0  0  0  0  0  0
    1.0160    4.1590    0.0000 H   0  0  0  0  0  0  0  0  0  0  0  0
    3.0860    3.6980    0.0000 H   0  0  0  0  0  0  0  0  0  0  0  0
   -0.2860    1.8090    0.0000 H   0  0  0  0  0  0  0  0  0  0  0  0
   -0.1700    3.2280    0.0000 H   0  0  0  0  0  0  0  0  0  0  0  0
   -0.0100   -2.0190    0.0000 H   0  0  0  0  0  0  0  0  0  0  0  0
    1.5800   -4.3690    0.0000 H   0  0  0  0  0  0  0  0  0  0  0  0
  1  2  1  0  0  0  0
  2  3  2  0  0  0  0
  2 21  1  0  0  0  0
  3  4  1  0  0  0  0
  3 22  1  0  0  0  0
  4  5  2  0  0  0  0
  4 23  1  0  0  0  0
  5  6  1  0  0  0  0
  5 20  1  0  0  0  0
  6  7  1  0  0  0  0
  6 17  1  0  0  0  0
  6 19  1  0  0  0  0
  7  8  2  0  0  0  0
  7  9  1  0  0  0  0
  9 10  1  0  0  0  0
  9 16  1  0  0  0  0
 10 11  2  0  0  0  0
 10 15  1  0  0  0  0
 11 12  1  0  0  0  0
 11 24  1  0  0  0  0
 12 13  2  0  0  0  0
 12 25  1  0  0  0  0
 13 14  1  0  0  0  0
 13 26  1  0  0  0  0
 14 15  2  0  0  0  0
 14 27  1  0  0  0  0
 15 28  1  0  0  0  0
 16 29  1  0  0  0  0
 16 30  1  0  0  0  0
 16 31  1  0  0  0  0
 17 18  1  0  0  0  0
 17 32  1  0  0  0  0
 17 33  1  0  0  0  0
 18 19  1  0  0  0  0
 18 34  1  0  0  0  0
 18 35  1  0  0  0  0
 19 36  1  0  0  0  0
 19 37  1  0  0  0  0
 20 21  2  0  0  0  0
 20 38  1  0  0  0  0
 21 39  1  0  0  0  0
M  END
$$$$
