2D_structures\o49_MMV638198_2D.pdb
 OpenBabel02282413353D

 81 85  0  0  1  0  0  0  0  0999 V2000
   -4.8870    3.4570    0.0000 O   0  0  0  0  0  0  0  0  0  0  0  0
   -5.3650    2.0350    0.0000 C   0  0  0  0  0  0  0  0  0  0  0  0
   -6.8610    1.9200    0.0000 O   0  0  0  0  0  0  0  0  0  0  0  0
   -4.5180    0.7980    0.0000 C   0  0  1  0  0  0  0  0  0  0  0  0
   -3.8040   -0.5220    0.0000 C   0  0  1  0  0  0  0  0  0  0  0  0
   -2.3050   -0.5640    0.0000 C   0  0  1  0  0  0  0  0  0  0  0  0
   -1.5190    0.7140    0.0000 C   0  0  1  0  0  0  0  0  0  0  0  0
   -0.0190    0.6720    0.0000 C   0  0  1  0  0  0  0  0  0  0  0  0
    0.6940   -0.6470    0.0000 C   0  0  1  0  0  0  0  0  0  0  0  0
    2.1940   -0.6890    0.0000 C   0  0  1  0  0  0  0  0  0  0  0  0
    2.9800    0.5880    0.0000 C   0  0  1  0  0  0  0  0  0  0  0  0
    4.4790    0.5460    0.0000 C   0  0  0  0  0  0  0  0  0  0  0  0
    5.1920   -0.7730    0.0000 C   0  0  1  0  0  0  0  0  0  0  0  0
    6.3140   -1.7690    0.0000 O   0  0  0  0  0  0  0  0  0  0  0  0
    4.4060   -2.0510    0.0000 C   0  0  0  0  0  0  0  0  0  0  0  0
    2.9070   -2.0090    0.0000 C   0  0  0  0  0  0  0  0  0  0  0  0
    5.9020    1.0200    0.0000 C   0  0  0  0  0  0  0  0  0  0  0  0
    4.2600    2.0300    0.0000 C   0  0  0  0  0  0  0  0  0  0  0  0
    2.2660    1.9080    0.0000 C   0  0  0  0  0  0  0  0  0  0  0  0
    0.7670    1.9500    0.0000 C   0  0  0  0  0  0  0  0  0  0  0  0
    3.6930   -0.7310    0.0000 C   0  0  0  0  0  0  0  0  0  0  0  0
   -0.0920   -1.9250    0.0000 C   0  0  0  0  0  0  0  0  0  0  0  0
   -1.5910   -1.8830    0.0000 C   0  0  0  0  0  0  0  0  0  0  0  0
    1.4800    0.6300    0.0000 C   0  0  0  0  0  0  0  0  0  0  0  0
   -0.7330    1.9910    0.0000 C   0  0  0  0  0  0  0  0  0  0  0  0
   -2.2320    2.0330    0.0000 C   0  0  0  0  0  0  0  0  0  0  0  0
   -3.7320    2.0750    0.0000 C   0  0  0  0  0  0  0  0  0  0  0  0
   -4.8390   -1.6080    0.0000 C   0  0  1  0  0  0  0  0  0  0  0  0
   -3.6500   -2.5230    0.0000 C   0  0  0  0  0  0  0  0  0  0  0  0
   -3.8480   -4.0100    0.0000 C   0  0  0  0  0  0  0  0  0  0  0  0
   -2.2630   -1.9520    0.0000 C   0  0  0  0  0  0  0  0  0  0  0  0
   -6.1910   -0.9600    0.0000 C   0  0  0  0  0  0  0  0  0  0  0  0
   -5.9930    0.5270    0.0000 C   0  0  0  0  0  0  0  0  0  0  0  0
   -7.7080    3.1580    0.0000 H   0  0  0  0  0  0  0  0  0  0  0  0
   -3.0680   -1.8290    0.0000 H   0  0  0  0  0  0  0  0  0  0  0  0
   -0.8110   -0.4230    0.0000 H   0  0  0  0  0  0  0  0  0  0  0  0
    1.4080   -1.9670    0.0000 H   0  0  0  0  0  0  0  0  0  0  0  0
    3.6040    1.9520    0.0000 H   0  0  0  0  0  0  0  0  0  0  0  0
    6.4730    0.0080    0.0000 H   0  0  0  0  0  0  0  0  0  0  0  0
    6.1940   -3.2640    0.0000 H   0  0  0  0  0  0  0  0  0  0  0  0
    4.1050   -3.5200    0.0000 H   0  0  0  0  0  0  0  0  0  0  0  0
    5.7230   -2.7690    0.0000 H   0  0  0  0  0  0  0  0  0  0  0  0
    1.6410   -2.8130    0.0000 H   0  0  0  0  0  0  0  0  0  0  0  0
    3.1260   -3.4930    0.0000 H   0  0  0  0  0  0  0  0  0  0  0  0
    7.3260    1.4930    0.0000 H   0  0  0  0  0  0  0  0  0  0  0  0
    6.5460   -0.3350    0.0000 H   0  0  0  0  0  0  0  0  0  0  0  0
    5.6060    2.4900    0.0000 H   0  0  0  0  0  0  0  0  0  0  0  0
    4.0410    3.5140    0.0000 H   0  0  0  0  0  0  0  0  0  0  0  0
    5.7060    2.4290    0.0000 H   0  0  0  0  0  0  0  0  0  0  0  0
    2.7670    2.1770    0.0000 H   0  0  0  0  0  0  0  0  0  0  0  0
    2.0470    3.3920    0.0000 H   0  0  0  0  0  0  0  0  0  0  0  0
    3.4250    2.8600    0.0000 H   0  0  0  0  0  0  0  0  0  0  0  0
   -0.3370    2.9650    0.0000 H   0  0  0  0  0  0  0  0  0  0  0  0
    1.0680    3.4190    0.0000 H   0  0  0  0  0  0  0  0  0  0  0  0
    5.1380   -1.1350    0.0000 H   0  0  0  0  0  0  0  0  0  0  0  0
    4.3600   -2.0750    0.0000 H   0  0  0  0  0  0  0  0  0  0  0  0
    4.5870    0.4730    0.0000 H   0  0  0  0  0  0  0  0  0  0  0  0
   -0.3930   -3.3940    0.0000 H   0  0  0  0  0  0  0  0  0  0  0  0
    1.1280   -2.7980    0.0000 H   0  0  0  0  0  0  0  0  0  0  0  0
   -2.7500   -2.8350    0.0000 H   0  0  0  0  0  0  0  0  0  0  0  0
   -1.1930   -3.3290    0.0000 H   0  0  0  0  0  0  0  0  0  0  0  0
    2.8950    1.1290    0.0000 H   0  0  0  0  0  0  0  0  0  0  0  0
    2.2210    1.9340    0.0000 H   0  0  0  0  0  0  0  0  0  0  0  0
    2.1470   -0.7130    0.0000 H   0  0  0  0  0  0  0  0  0  0  0  0
    0.0530    3.2690    0.0000 H   0  0  0  0  0  0  0  0  0  0  0  0
   -1.6440    3.1830    0.0000 H   0  0  0  0  0  0  0  0  0  0  0  0
    0.7640    1.8970    0.0000 H   0  0  0  0  0  0  0  0  0  0  0  0
   -2.6310    3.4790    0.0000 H   0  0  0  0  0  0  0  0  0  0  0  0
   -1.0730    2.9860    0.0000 H   0  0  0  0  0  0  0  0  0  0  0  0
   -4.8360    3.0910    0.0000 H   0  0  0  0  0  0  0  0  0  0  0  0
   -3.4300    3.5450    0.0000 H   0  0  0  0  0  0  0  0  0  0  0  0
   -5.6240   -2.8860    0.0000 H   0  0  0  0  0  0  0  0  0  0  0  0
   -2.6600   -4.9250    0.0000 H   0  0  0  0  0  0  0  0  0  0  0  0
   -5.2350   -4.5820    0.0000 H   0  0  0  0  0  0  0  0  0  0  0  0
   -0.8170   -1.5530    0.0000 H   0  0  0  0  0  0  0  0  0  0  0  0
   -1.8650   -3.3980    0.0000 H   0  0  0  0  0  0  0  0  0  0  0  0
   -2.4820   -0.4680    0.0000 H   0  0  0  0  0  0  0  0  0  0  0  0
   -6.6940   -2.3730    0.0000 H   0  0  0  0  0  0  0  0  0  0  0  0
   -7.6490   -0.6070    0.0000 H   0  0  0  0  0  0  0  0  0  0  0  0
   -7.4920    0.5690    0.0000 H   0  0  0  0  0  0  0  0  0  0  0  0
   -6.7970    1.7930    0.0000 H   0  0  0  0  0  0  0  0  0  0  0  0
  1  2  2  0  0  0  0
  2  3  1  0  0  0  0
  3 34  1  0  0  0  0
  4  2  1  6  0  0  0
  4  5  1  0  0  0  0
  4 27  1  0  0  0  0
  4 33  1  0  0  0  0
  5  6  1  0  0  0  0
  5 28  1  0  0  0  0
  5 35  1  6  0  0  0
  6  7  1  0  0  0  0
  6 23  1  0  0  0  0
  6 36  1  6  0  0  0
  7  8  1  0  0  0  0
  7 25  1  6  0  0  0
  7 26  1  0  0  0  0
  8  9  1  0  0  0  0
  8 20  1  0  0  0  0
  8 24  1  1  0  0  0
  9 10  1  0  0  0  0
  9 22  1  0  0  0  0
  9 37  1  6  0  0  0
 10 11  1  0  0  0  0
 10 16  1  0  0  0  0
 10 21  1  6  0  0  0
 11 12  1  0  0  0  0
 11 19  1  0  0  0  0
 11 38  1  1  0  0  0
 12 13  1  0  0  0  0
 12 17  1  0  0  0  0
 12 18  1  0  0  0  0
 13 14  1  0  0  0  0
 13 15  1  0  0  0  0
 13 39  1  6  0  0  0
 14 40  1  0  0  0  0
 15 16  1  0  0  0  0
 15 41  1  0  0  0  0
 15 42  1  0  0  0  0
 16 43  1  0  0  0  0
 16 44  1  0  0  0  0
 17 45  1  0  0  0  0
 17 46  1  0  0  0  0
 17 47  1  0  0  0  0
 18 48  1  0  0  0  0
 18 49  1  0  0  0  0
 18 50  1  0  0  0  0
 19 20  1  0  0  0  0
 19 51  1  0  0  0  0
 19 52  1  0  0  0  0
 20 53  1  0  0  0  0
 20 54  1  0  0  0  0
 21 55  1  0  0  0  0
 21 56  1  0  0  0  0
 21 57  1  0  0  0  0
 22 23  1  0  0  0  0
 22 58  1  0  0  0  0
 22 59  1  0  0  0  0
 23 60  1  0  0  0  0
 23 61  1  0  0  0  0
 24 62  1  0  0  0  0
 24 63  1  0  0  0  0
 24 64  1  0  0  0  0
 25 65  1  0  0  0  0
 25 66  1  0  0  0  0
 25 67  1  0  0  0  0
 26 27  1  0  0  0  0
 26 68  1  0  0  0  0
 26 69  1  0  0  0  0
 27 70  1  0  0  0  0
 27 71  1  0  0  0  0
 28 29  1  0  0  0  0
 28 32  1  0  0  0  0
 28 72  1  6  0  0  0
 29 30  2  0  0  0  0
 29 31  1  0  0  0  0
 30 73  1  0  0  0  0
 30 74  1  0  0  0  0
 31 75  1  0  0  0  0
 31 76  1  0  0  0  0
 31 77  1  0  0  0  0
 32 33  1  0  0  0  0
 32 78  1  0  0  0  0
 32 79  1  0  0  0  0
 33 80  1  0  0  0  0
 33 81  1  0  0  0  0
M  END
$$$$
