2D_structures\o4_MMV275100_2D.pdb
 OpenBabel02282413353D

 52 55  0  0  0  0  0  0  0  0999 V2000
    3.3950   -3.5820    0.0000 F   0  0  0  0  0  0  0  0  0  0  0  0
    1.8990   -3.4640    0.0000 C   0  0  0  0  0  0  0  0  0  0  0  0
    1.2540   -2.1100    0.0000 C   0  0  0  0  0  0  0  0  0  0  0  0
    2.1040   -0.8740    0.0000 N   0  0  0  0  0  0  0  0  0  0  0  0
    3.5990   -0.9920    0.0000 C   0  0  0  0  0  0  0  0  0  0  0  0
    4.2450   -2.3460    0.0000 O   0  0  0  0  0  0  0  0  0  0  0  0
    4.4490    0.2440    0.0000 C   0  0  0  0  0  0  0  0  0  0  0  0
    3.8040    1.5980    0.0000 C   0  0  0  0  0  0  0  0  0  0  0  0
    4.6540    2.8340    0.0000 C   0  0  0  0  0  0  0  0  0  0  0  0
    6.1490    2.7160    0.0000 C   0  0  0  0  0  0  0  0  0  0  0  0
    6.7950    1.3620    0.0000 C   0  0  0  0  0  0  0  0  0  0  0  0
    5.9450    0.1260    0.0000 C   0  0  0  0  0  0  0  0  0  0  0  0
    8.2900    1.2440    0.0000 N   0  3  0  0  0  0  0  0  0  0  0  0
    8.9350   -0.1100    0.0000 O   0  5  0  0  0  0  0  0  0  0  0  0
    9.1400    2.4800    0.0000 O   0  0  0  0  0  0  0  0  0  0  0  0
    2.3090    1.7160    0.0000 N   0  0  0  0  0  0  0  0  0  0  0  0
    1.4590    0.4800    0.0000 C   0  0  0  0  0  0  0  0  0  0  0  0
   -0.0370    0.5990    0.0000 C   0  0  0  0  0  0  0  0  0  0  0  0
   -1.5320    0.7170    0.0000 N   0  0  0  0  0  0  0  0  0  0  0  0
   -2.1780    2.0710    0.0000 C   0  0  0  0  0  0  0  0  0  0  0  0
   -3.6730    2.1890    0.0000 C   0  0  0  0  0  0  0  0  0  0  0  0
   -4.5230    0.9530    0.0000 N   0  0  0  0  0  0  0  0  0  0  0  0
   -6.0180    1.0710    0.0000 C   0  0  0  0  0  0  0  0  0  0  0  0
   -7.5140    1.1890    0.0000 C   0  0  0  0  0  0  0  0  0  0  0  0
   -3.8770   -0.4010    0.0000 C   0  0  0  0  0  0  0  0  0  0  0  0
   -2.3820   -0.5190    0.0000 C   0  0  0  0  0  0  0  0  0  0  0  0
   -0.2410   -1.9910    0.0000 C   0  0  0  0  0  0  0  0  0  0  0  0
   -1.0910   -3.2270    0.0000 C   0  0  0  0  0  0  0  0  0  0  0  0
   -0.4460   -4.5810    0.0000 C   0  0  0  0  0  0  0  0  0  0  0  0
    1.0490   -4.7000    0.0000 C   0  0  0  0  0  0  0  0  0  0  0  0
    4.0080    4.1880    0.0000 H   0  0  0  0  0  0  0  0  0  0  0  0
    6.9990    3.9520    0.0000 H   0  0  0  0  0  0  0  0  0  0  0  0
    6.5900   -1.2280    0.0000 H   0  0  0  0  0  0  0  0  0  0  0  0
   -0.1070   -0.2840    0.0000 H   0  0  0  0  0  0  0  0  0  0  0  0
    0.2630    2.0680    0.0000 H   0  0  0  0  0  0  0  0  0  0  0  0
   -2.3210    3.5640    0.0000 H   0  0  0  0  0  0  0  0  0  0  0  0
   -0.7920    2.6440    0.0000 H   0  0  0  0  0  0  0  0  0  0  0  0
   -4.9520    2.9730    0.0000 H   0  0  0  0  0  0  0  0  0  0  0  0
   -3.2970    3.6410    0.0000 H   0  0  0  0  0  0  0  0  0  0  0  0
   -6.0830    2.5700    0.0000 H   0  0  0  0  0  0  0  0  0  0  0  0
   -6.3180   -0.3990    0.0000 H   0  0  0  0  0  0  0  0  0  0  0  0
   -9.0090    1.3070    0.0000 H   0  0  0  0  0  0  0  0  0  0  0  0
   -7.3950    2.6850    0.0000 H   0  0  0  0  0  0  0  0  0  0  0  0
   -7.6320   -0.3060    0.0000 H   0  0  0  0  0  0  0  0  0  0  0  0
   -3.7340   -1.8940    0.0000 H   0  0  0  0  0  0  0  0  0  0  0  0
   -5.2630   -0.9750    0.0000 H   0  0  0  0  0  0  0  0  0  0  0  0
   -1.3870   -0.9730    0.0000 H   0  0  0  0  0  0  0  0  0  0  0  0
   -2.7580   -1.9710    0.0000 H   0  0  0  0  0  0  0  0  0  0  0  0
   -0.5840   -1.2720    0.0000 H   0  0  0  0  0  0  0  0  0  0  0  0
   -2.5870   -3.1090    0.0000 H   0  0  0  0  0  0  0  0  0  0  0  0
   -1.2960   -5.8170    0.0000 H   0  0  0  0  0  0  0  0  0  0  0  0
    1.6950   -6.0540    0.0000 H   0  0  0  0  0  0  0  0  0  0  0  0
  1  2  1  0  0  0  0
  2  3  2  0  0  0  0
  2 30  1  0  0  0  0
  3  4  1  0  0  0  0
  3 27  1  0  0  0  0
  4  5  1  0  0  0  0
  4 17  1  0  0  0  0
  5  6  2  0  0  0  0
  5  7  1  0  0  0  0
  7  8  2  0  0  0  0
  7 12  1  0  0  0  0
  8  9  1  0  0  0  0
  8 16  1  0  0  0  0
  9 10  2  0  0  0  0
  9 31  1  0  0  0  0
 10 11  1  0  0  0  0
 10 32  1  0  0  0  0
 11 12  2  0  0  0  0
 11 13  1  0  0  0  0
 12 33  1  0  0  0  0
 13 14  1  0  0  0  0
 13 15  2  0  0  0  0
 16 17  2  0  0  0  0
 17 18  1  0  0  0  0
 18 19  1  0  0  0  0
 18 34  1  0  0  0  0
 18 35  1  0  0  0  0
 19 20  1  0  0  0  0
 19 26  1  0  0  0  0
 20 21  1  0  0  0  0
 20 36  1  0  0  0  0
 20 37  1  0  0  0  0
 21 22  1  0  0  0  0
 21 38  1  0  0  0  0
 21 39  1  0  0  0  0
 22 23  1  0  0  0  0
 22 25  1  0  0  0  0
 23 24  1  0  0  0  0
 23 40  1  0  0  0  0
 23 41  1  0  0  0  0
 24 42  1  0  0  0  0
 24 43  1  0  0  0  0
 24 44  1  0  0  0  0
 25 26  1  0  0  0  0
 25 45  1  0  0  0  0
 25 46  1  0  0  0  0
 26 47  1  0  0  0  0
 26 48  1  0  0  0  0
 27 28  2  0  0  0  0
 27 49  1  0  0  0  0
 28 29  1  0  0  0  0
 28 50  1  0  0  0  0
 29 30  2  0  0  0  0
 29 51  1  0  0  0  0
 30 52  1  0  0  0  0
M  CHG  2  13   1  14  -1
M  END
$$$$
