2D_structures\o50_MMV637413_2D.pdb
 OpenBabel02282413353D

 32 34  0  0  1  0  0  0  0  0999 V2000
   -4.0270   -4.0250    0.0000 F   0  0  0  0  0  0  0  0  0  0  0  0
   -3.7440   -2.5520    0.0000 C   0  0  0  0  0  0  0  0  0  0  0  0
   -4.8780   -1.5700    0.0000 N   0  0  0  0  0  0  0  0  0  0  0  0
   -4.5940   -0.0970    0.0000 C   0  0  0  0  0  0  0  0  0  0  0  0
   -3.1770    0.3940    0.0000 C   0  0  0  0  0  0  0  0  0  0  0  0
   -2.5930    1.7750    0.0000 N   0  0  0  0  0  0  0  0  0  0  0  0
   -1.0990    1.6470    0.0000 C   0  0  0  0  0  0  0  0  0  0  0  0
   -0.7580    0.1870    0.0000 N   0  0  0  0  0  0  0  0  0  0  0  0
   -2.0430   -0.5880    0.0000 C   0  0  0  0  0  0  0  0  0  0  0  0
   -2.3260   -2.0610    0.0000 N   0  0  0  0  0  0  0  0  0  0  0  0
    0.6230   -0.3970    0.0000 C   0  0  1  0  0  0  0  0  0  0  0  0
    1.8540   -1.2550    0.0000 O   0  0  0  0  0  0  0  0  0  0  0  0
    3.0500   -0.3500    0.0000 C   0  0  1  0  0  0  0  0  0  0  0  0
    3.8250   -1.6350    0.0000 C   0  0  0  0  0  0  0  0  0  0  0  0
    4.6000   -2.9190    0.0000 O   0  0  0  0  0  0  0  0  0  0  0  0
    2.5590    1.0670    0.0000 C   0  0  1  0  0  0  0  0  0  0  0  0
    1.0590    1.0380    0.0000 C   0  0  1  0  0  0  0  0  0  0  0  0
    1.1870    2.5330    0.0000 O   0  0  0  0  0  0  0  0  0  0  0  0
    4.0200    1.4070    0.0000 O   0  0  0  0  0  0  0  0  0  0  0  0
   -5.7280    0.8850    0.0000 N   0  0  0  0  0  0  0  0  0  0  0  0
   -0.1170    2.7810    0.0000 H   0  0  0  0  0  0  0  0  0  0  0  0
   -0.1010   -1.7100    0.0000 H   0  0  0  0  0  0  0  0  0  0  0  0
    4.4080    0.2860    0.0000 H   0  0  0  0  0  0  0  0  0  0  0  0
    5.1090   -0.8600    0.0000 H   0  0  0  0  0  0  0  0  0  0  0  0
    2.5410   -2.4090    0.0000 H   0  0  0  0  0  0  0  0  0  0  0  0
    3.8750   -4.2320    0.0000 H   0  0  0  0  0  0  0  0  0  0  0  0
    2.5570    2.2820    0.0000 H   0  0  0  0  0  0  0  0  0  0  0  0
   -0.1650    1.6070    0.0000 H   0  0  0  0  0  0  0  0  0  0  0  0
    2.2160    3.1790    0.0000 H   0  0  0  0  0  0  0  0  0  0  0  0
    4.4560    2.8430    0.0000 H   0  0  0  0  0  0  0  0  0  0  0  0
   -7.1450    0.3940    0.0000 H   0  0  0  0  0  0  0  0  0  0  0  0
   -5.4440    2.3580    0.0000 H   0  0  0  0  0  0  0  0  0  0  0  0
  1  2  1  0  0  0  0
  2  3  2  0  0  0  0
  2 10  1  0  0  0  0
  3  4  1  0  0  0  0
  4  5  2  0  0  0  0
  4 20  1  0  0  0  0
  5  6  1  0  0  0  0
  5  9  1  0  0  0  0
  6  7  2  0  0  0  0
  7  8  1  0  0  0  0
  7 21  1  0  0  0  0
  8  9  1  0  0  0  0
  8 11  1  0  0  0  0
  9 10  2  0  0  0  0
 11 12  1  0  0  0  0
 11 17  1  0  0  0  0
 11 22  1  1  0  0  0
 12 13  1  0  0  0  0
 13 14  1  0  0  0  0
 13 16  1  0  0  0  0
 13 23  1  1  0  0  0
 14 15  1  0  0  0  0
 14 24  1  0  0  0  0
 14 25  1  0  0  0  0
 15 26  1  0  0  0  0
 16 17  1  0  0  0  0
 16 19  1  0  0  0  0
 16 27  1  6  0  0  0
 17 18  1  0  0  0  0
 17 28  1  1  0  0  0
 18 29  1  0  0  0  0
 19 30  1  0  0  0  0
 20 31  1  0  0  0  0
 20 32  1  0  0  0  0
M  END
$$$$
