2D_structures\o59_MMV1782213_2D.pdb
 OpenBabel02282413353D

 52 56  0  0  0  0  0  0  0  0999 V2000
  -10.6800   -1.9000    0.0000 O   0  0  0  0  0  0  0  0  0  0  0  0
  -10.1560   -0.4950    0.0000 C   0  0  0  0  0  0  0  0  0  0  0  0
  -11.1110    0.6620    0.0000 O   0  0  0  0  0  0  0  0  0  0  0  0
   -8.6770   -0.2460    0.0000 C   0  0  0  0  0  0  0  0  0  0  0  0
   -8.1520    1.1590    0.0000 C   0  0  0  0  0  0  0  0  0  0  0  0
   -6.6730    1.4080    0.0000 C   0  0  0  0  0  0  0  0  0  0  0  0
   -5.7180    0.2510    0.0000 C   0  0  0  0  0  0  0  0  0  0  0  0
   -4.2390    0.5000    0.0000 N   0  0  0  0  0  0  0  0  0  0  0  0
   -3.2840   -0.6570    0.0000 C   0  0  0  0  0  0  0  0  0  0  0  0
   -3.8080   -2.0630    0.0000 O   0  0  0  0  0  0  0  0  0  0  0  0
   -1.8050   -0.4090    0.0000 C   0  0  0  0  0  0  0  0  0  0  0  0
   -0.3250   -0.1600    0.0000 S   0  0  0  0  0  0  0  0  0  0  0  0
    0.1990    1.2450    0.0000 C   0  0  0  0  0  0  0  0  0  0  0  0
   -0.6300    2.4960    0.0000 N   0  0  0  0  0  0  0  0  0  0  0  0
    0.3030    3.6700    0.0000 N   0  0  0  0  0  0  0  0  0  0  0  0
    1.7080    3.1460    0.0000 C   0  0  0  0  0  0  0  0  0  0  0  0
    2.6320    3.9360    0.0000 Br  0  0  0  0  0  0  0  0  0  0  0  0
    1.6440    1.6470    0.0000 N   0  0  0  0  0  0  0  0  0  0  0  0
    2.8190    0.7140    0.0000 C   0  0  0  0  0  0  0  0  0  0  0  0
    2.5980   -0.7690    0.0000 C   0  0  0  0  0  0  0  0  0  0  0  0
    3.7730   -1.7020    0.0000 C   0  0  0  0  0  0  0  0  0  0  0  0
    5.1680   -1.1520    0.0000 C   0  0  0  0  0  0  0  0  0  0  0  0
    6.3420   -2.0850    0.0000 C   0  0  0  0  0  0  0  0  0  0  0  0
    7.1270   -3.3630    0.0000 C   0  0  0  0  0  0  0  0  0  0  0  0
    5.6270   -3.4030    0.0000 C   0  0  0  0  0  0  0  0  0  0  0  0
    5.3880    0.3320    0.0000 C   0  0  0  0  0  0  0  0  0  0  0  0
    6.7840    0.8830    0.0000 C   0  0  0  0  0  0  0  0  0  0  0  0
    7.0040    2.3660    0.0000 C   0  0  0  0  0  0  0  0  0  0  0  0
    5.8300    3.2990    0.0000 C   0  0  0  0  0  0  0  0  0  0  0  0
    4.4350    2.7490    0.0000 C   0  0  0  0  0  0  0  0  0  0  0  0
    4.2140    1.2650    0.0000 C   0  0  0  0  0  0  0  0  0  0  0  0
   -6.2420   -1.1540    0.0000 C   0  0  0  0  0  0  0  0  0  0  0  0
   -5.2880   -2.3110    0.0000 Cl  0  0  0  0  0  0  0  0  0  0  0  0
   -7.7220   -1.4030    0.0000 C   0  0  0  0  0  0  0  0  0  0  0  0
  -12.1590   -2.1490    0.0000 H   0  0  0  0  0  0  0  0  0  0  0  0
   -9.1070    2.3160    0.0000 H   0  0  0  0  0  0  0  0  0  0  0  0
   -6.1490    2.8130    0.0000 H   0  0  0  0  0  0  0  0  0  0  0  0
   -3.7140    1.9050    0.0000 H   0  0  0  0  0  0  0  0  0  0  0  0
   -2.0530    1.0710    0.0000 H   0  0  0  0  0  0  0  0  0  0  0  0
   -1.5560   -1.8880    0.0000 H   0  0  0  0  0  0  0  0  0  0  0  0
    1.2030   -1.3200    0.0000 H   0  0  0  0  0  0  0  0  0  0  0  0
    3.4490   -2.8730    0.0000 H   0  0  0  0  0  0  0  0  0  0  0  0
    7.4650   -1.0900    0.0000 H   0  0  0  0  0  0  0  0  0  0  0  0
    8.5220   -2.8120    0.0000 H   0  0  0  0  0  0  0  0  0  0  0  0
    7.4270   -4.8330    0.0000 H   0  0  0  0  0  0  0  0  0  0  0  0
    5.4070   -4.8870    0.0000 H   0  0  0  0  0  0  0  0  0  0  0  0
    4.4370   -3.1620    0.0000 H   0  0  0  0  0  0  0  0  0  0  0  0
    7.9580   -0.0500    0.0000 H   0  0  0  0  0  0  0  0  0  0  0  0
    8.4000    2.9170    0.0000 H   0  0  0  0  0  0  0  0  0  0  0  0
    6.0510    4.7830    0.0000 H   0  0  0  0  0  0  0  0  0  0  0  0
    3.5820    3.6150    0.0000 H   0  0  0  0  0  0  0  0  0  0  0  0
   -8.2460   -2.8080    0.0000 H   0  0  0  0  0  0  0  0  0  0  0  0
  1  2  1  0  0  0  0
  1 35  1  0  0  0  0
  2  3  2  0  0  0  0
  2  4  1  0  0  0  0
  4  5  2  0  0  0  0
  4 34  1  0  0  0  0
  5  6  1  0  0  0  0
  5 36  1  0  0  0  0
  6  7  2  0  0  0  0
  6 37  1  0  0  0  0
  7  8  1  0  0  0  0
  7 32  1  0  0  0  0
  8  9  1  0  0  0  0
  8 38  1  0  0  0  0
  9 10  2  0  0  0  0
  9 11  1  0  0  0  0
 11 12  1  0  0  0  0
 11 39  1  0  0  0  0
 11 40  1  0  0  0  0
 12 13  1  0  0  0  0
 13 14  2  0  0  0  0
 13 18  1  0  0  0  0
 14 15  1  0  0  0  0
 15 16  2  0  0  0  0
 16 17  1  0  0  0  0
 16 18  1  0  0  0  0
 18 19  1  0  0  0  0
 19 20  2  0  0  0  0
 19 31  1  0  0  0  0
 20 21  1  0  0  0  0
 20 41  1  0  0  0  0
 21 22  2  0  0  0  0
 21 42  1  0  0  0  0
 22 23  1  0  0  0  0
 22 26  1  0  0  0  0
 23 24  1  0  0  0  0
 23 25  1  0  0  0  0
 23 43  1  0  0  0  0
 24 25  1  0  0  0  0
 24 44  1  0  0  0  0
 24 45  1  0  0  0  0
 25 46  1  0  0  0  0
 25 47  1  0  0  0  0
 26 27  2  0  0  0  0
 26 31  1  0  0  0  0
 27 28  1  0  0  0  0
 27 48  1  0  0  0  0
 28 29  2  0  0  0  0
 28 49  1  0  0  0  0
 29 30  1  0  0  0  0
 29 50  1  0  0  0  0
 30 31  2  0  0  0  0
 30 51  1  0  0  0  0
 32 33  1  0  0  0  0
 32 34  2  0  0  0  0
 34 52  1  0  0  0  0
M  END
$$$$
