2D_structures\o60_MMV1782214_2D.pdb
 OpenBabel02282413353D

 87 90  0  0  1  0  0  0  0  0999 V2000
   -3.4870   -2.7440    0.0000 C   0  0  0  0  0  0  0  0  0  0  0  0
   -4.7290   -1.9030    0.0000 N   0  0  0  0  0  0  0  0  0  0  0  0
   -4.6220   -0.4070    0.0000 C   0  0  0  0  0  0  0  0  0  0  0  0
   -4.5150    1.0890    0.0000 C   0  0  1  0  0  0  0  0  0  0  0  0
   -6.0110    1.1960    0.0000 C   0  0  0  0  0  0  0  0  0  0  0  0
   -3.0190    0.9820    0.0000 C   0  0  0  0  0  0  0  0  0  0  0  0
   -1.5220    0.8740    0.0000 C   0  0  0  0  0  0  0  0  0  0  0  0
   -0.0260    0.7670    0.0000 N   0  0  0  0  0  0  0  0  0  0  0  0
    0.6290   -0.5830    0.0000 C   0  0  0  0  0  0  0  0  0  0  0  0
    2.1250   -0.6900    0.0000 C   0  0  0  0  0  0  0  0  0  0  0  0
    2.9660    0.5520    0.0000 C   0  0  1  0  0  0  0  0  0  0  0  0
    2.3110    1.9020    0.0000 C   0  0  0  0  0  0  0  0  0  0  0  0
    0.8150    2.0090    0.0000 C   0  0  0  0  0  0  0  0  0  0  0  0
    4.1810    1.4320    0.0000 N   0  0  0  0  0  0  0  0  0  0  0  0
    4.0270    2.9240    0.0000 C   0  0  0  0  0  0  0  0  0  0  0  0
    3.8730    4.4160    0.0000 C   0  0  0  0  0  0  0  0  0  0  0  0
    5.0880    5.2950    0.0000 C   0  0  0  0  0  0  0  0  0  0  0  0
    5.5500    0.8190    0.0000 C   0  0  0  0  0  0  0  0  0  0  0  0
    6.7650    1.6990    0.0000 O   0  0  0  0  0  0  0  0  0  0  0  0
    5.7040   -0.6730    0.0000 O   0  0  0  0  0  0  0  0  0  0  0  0
    7.0740   -1.2860    0.0000 C   0  0  0  0  0  0  0  0  0  0  0  0
    8.4430   -1.8980    0.0000 C   0  0  0  0  0  0  0  0  0  0  0  0
    8.5970   -3.3900    0.0000 C   0  0  0  0  0  0  0  0  0  0  0  0
    9.9660   -4.0030    0.0000 C   0  0  0  0  0  0  0  0  0  0  0  0
   11.1810   -3.1230    0.0000 C   0  0  0  0  0  0  0  0  0  0  0  0
   11.0270   -1.6310    0.0000 C   0  0  0  0  0  0  0  0  0  0  0  0
    9.6580   -1.0190    0.0000 C   0  0  0  0  0  0  0  0  0  0  0  0
   12.5500   -3.7360    0.0000 N   0  3  0  0  0  0  0  0  0  0  0  0
   13.7660   -2.8560    0.0000 O   0  5  0  0  0  0  0  0  0  0  0  0
   12.7050   -5.2280    0.0000 O   0  0  0  0  0  0  0  0  0  0  0  0
   -4.4070    2.5850    0.0000 C   0  0  0  0  0  0  0  0  0  0  0  0
   -3.0580    3.2400    0.0000 C   0  0  0  0  0  0  0  0  0  0  0  0
   -2.9510    4.7360    0.0000 C   0  0  0  0  0  0  0  0  0  0  0  0
   -4.1930    5.5770    0.0000 C   0  0  0  0  0  0  0  0  0  0  0  0
   -5.5420    4.9220    0.0000 C   0  0  0  0  0  0  0  0  0  0  0  0
   -5.6490    3.4260    0.0000 C   0  0  0  0  0  0  0  0  0  0  0  0
   -6.0790   -2.5590    0.0000 S   0  0  0  0  0  0  0  0  0  0  0  0
   -6.7340   -1.2090    0.0000 O   0  0  0  0  0  0  0  0  0  0  0  0
   -5.4240   -3.9080    0.0000 O   0  0  0  0  0  0  0  0  0  0  0  0
   -7.4280   -3.2140    0.0000 C   0  0  0  0  0  0  0  0  0  0  0  0
   -7.5360   -4.7100    0.0000 C   0  0  0  0  0  0  0  0  0  0  0  0
   -8.8850   -5.3650    0.0000 C   0  0  0  0  0  0  0  0  0  0  0  0
  -10.1270   -4.5240    0.0000 C   0  0  0  0  0  0  0  0  0  0  0  0
  -10.0200   -3.0280    0.0000 C   0  0  0  0  0  0  0  0  0  0  0  0
   -8.6700   -2.3730    0.0000 C   0  0  0  0  0  0  0  0  0  0  0  0
   -2.2450   -3.5860    0.0000 H   0  0  0  0  0  0  0  0  0  0  0  0
   -4.3280   -3.9870    0.0000 H   0  0  0  0  0  0  0  0  0  0  0  0
   -2.6460   -1.5020    0.0000 H   0  0  0  0  0  0  0  0  0  0  0  0
   -3.7530   -0.5780    0.0000 H   0  0  0  0  0  0  0  0  0  0  0  0
   -5.5070   -0.4520    0.0000 H   0  0  0  0  0  0  0  0  0  0  0  0
   -7.5070    1.3040    0.0000 H   0  0  0  0  0  0  0  0  0  0  0  0
   -6.1820    0.3270    0.0000 H   0  0  0  0  0  0  0  0  0  0  0  0
   -6.2690    2.6740    0.0000 H   0  0  0  0  0  0  0  0  0  0  0  0
   -2.5520    2.4070    0.0000 H   0  0  0  0  0  0  0  0  0  0  0  0
   -2.9740    0.0970    0.0000 H   0  0  0  0  0  0  0  0  0  0  0  0
   -1.8110   -0.5980    0.0000 H   0  0  0  0  0  0  0  0  0  0  0  0
   -1.4150    2.3700    0.0000 H   0  0  0  0  0  0  0  0  0  0  0  0
    0.7830   -2.0750    0.0000 H   0  0  0  0  0  0  0  0  0  0  0  0
   -0.7530   -1.1660    0.0000 H   0  0  0  0  0  0  0  0  0  0  0  0
    3.4940   -1.3020    0.0000 H   0  0  0  0  0  0  0  0  0  0  0  0
    1.7590   -2.1450    0.0000 H   0  0  0  0  0  0  0  0  0  0  0  0
    4.0430   -0.4920    0.0000 H   0  0  0  0  0  0  0  0  0  0  0  0
    2.0400    3.0860    0.0000 H   0  0  0  0  0  0  0  0  0  0  0  0
    3.2590    2.4470    0.0000 H   0  0  0  0  0  0  0  0  0  0  0  0
   -0.4700    2.7840    0.0000 H   0  0  0  0  0  0  0  0  0  0  0  0
    1.1110    3.1870    0.0000 H   0  0  0  0  0  0  0  0  0  0  0  0
    2.5270    2.9530    0.0000 H   0  0  0  0  0  0  0  0  0  0  0  0
    5.5190    3.0780    0.0000 H   0  0  0  0  0  0  0  0  0  0  0  0
    2.5040    5.0280    0.0000 H   0  0  0  0  0  0  0  0  0  0  0  0
    4.9340    6.7870    0.0000 H   0  0  0  0  0  0  0  0  0  0  0  0
    6.4570    4.6830    0.0000 H   0  0  0  0  0  0  0  0  0  0  0  0
    7.6860    0.0840    0.0000 H   0  0  0  0  0  0  0  0  0  0  0  0
    6.4610   -2.6550    0.0000 H   0  0  0  0  0  0  0  0  0  0  0  0
    7.3820   -4.2700    0.0000 H   0  0  0  0  0  0  0  0  0  0  0  0
   10.1200   -5.4950    0.0000 H   0  0  0  0  0  0  0  0  0  0  0  0
   12.2420   -0.7520    0.0000 H   0  0  0  0  0  0  0  0  0  0  0  0
    9.5040    0.4730    0.0000 H   0  0  0  0  0  0  0  0  0  0  0  0
   -1.7230    2.5570    0.0000 H   0  0  0  0  0  0  0  0  0  0  0  0
   -1.6010    5.3910    0.0000 H   0  0  0  0  0  0  0  0  0  0  0  0
   -4.0850    7.0730    0.0000 H   0  0  0  0  0  0  0  0  0  0  0  0
   -6.7840    5.7630    0.0000 H   0  0  0  0  0  0  0  0  0  0  0  0
   -6.9990    2.7710    0.0000 H   0  0  0  0  0  0  0  0  0  0  0  0
   -6.2930   -5.5510    0.0000 H   0  0  0  0  0  0  0  0  0  0  0  0
   -8.9920   -6.8610    0.0000 H   0  0  0  0  0  0  0  0  0  0  0  0
  -11.4760   -5.1790    0.0000 H   0  0  0  0  0  0  0  0  0  0  0  0
  -11.2620   -2.1870    0.0000 H   0  0  0  0  0  0  0  0  0  0  0  0
   -8.5630   -0.8770    0.0000 H   0  0  0  0  0  0  0  0  0  0  0  0
  1  2  1  0  0  0  0
  1 46  1  0  0  0  0
  1 47  1  0  0  0  0
  1 48  1  0  0  0  0
  2  3  1  0  0  0  0
  2 37  1  0  0  0  0
  3 49  1  0  0  0  0
  3 50  1  0  0  0  0
  4  3  1  6  0  0  0
  4  5  1  0  0  0  0
  4  6  1  0  0  0  0
  4 31  1  0  0  0  0
  5 51  1  0  0  0  0
  5 52  1  0  0  0  0
  5 53  1  0  0  0  0
  6  7  1  0  0  0  0
  6 54  1  0  0  0  0
  6 55  1  0  0  0  0
  7  8  1  0  0  0  0
  7 56  1  0  0  0  0
  7 57  1  0  0  0  0
  8  9  1  0  0  0  0
  8 13  1  0  0  0  0
  9 10  1  0  0  0  0
  9 58  1  0  0  0  0
  9 59  1  0  0  0  0
 10 11  1  0  0  0  0
 10 60  1  0  0  0  0
 10 61  1  0  0  0  0
 11 12  1  0  0  0  0
 11 14  1  0  0  0  0
 11 62  1  6  0  0  0
 12 13  1  0  0  0  0
 12 63  1  0  0  0  0
 12 64  1  0  0  0  0
 13 65  1  0  0  0  0
 13 66  1  0  0  0  0
 14 15  1  0  0  0  0
 14 18  1  0  0  0  0
 15 16  1  0  0  0  0
 15 67  1  0  0  0  0
 15 68  1  0  0  0  0
 16 17  2  0  0  0  0
 16 69  1  0  0  0  0
 17 70  1  0  0  0  0
 17 71  1  0  0  0  0
 18 19  2  0  0  0  0
 18 20  1  0  0  0  0
 20 21  1  0  0  0  0
 21 22  1  0  0  0  0
 21 72  1  0  0  0  0
 21 73  1  0  0  0  0
 22 23  2  0  0  0  0
 22 27  1  0  0  0  0
 23 24  1  0  0  0  0
 23 74  1  0  0  0  0
 24 25  2  0  0  0  0
 24 75  1  0  0  0  0
 25 26  1  0  0  0  0
 25 28  1  0  0  0  0
 26 27  2  0  0  0  0
 26 76  1  0  0  0  0
 27 77  1  0  0  0  0
 28 29  1  0  0  0  0
 28 30  2  0  0  0  0
 31 32  2  0  0  0  0
 31 36  1  0  0  0  0
 32 33  1  0  0  0  0
 32 78  1  0  0  0  0
 33 34  2  0  0  0  0
 33 79  1  0  0  0  0
 34 35  1  0  0  0  0
 34 80  1  0  0  0  0
 35 36  2  0  0  0  0
 35 81  1  0  0  0  0
 36 82  1  0  0  0  0
 37 38  2  0  0  0  0
 37 39  2  0  0  0  0
 37 40  1  0  0  0  0
 40 41  2  0  0  0  0
 40 45  1  0  0  0  0
 41 42  1  0  0  0  0
 41 83  1  0  0  0  0
 42 43  2  0  0  0  0
 42 84  1  0  0  0  0
 43 44  1  0  0  0  0
 43 85  1  0  0  0  0
 44 45  2  0  0  0  0
 44 86  1  0  0  0  0
 45 87  1  0  0  0  0
M  CHG  2  28   1  29  -1
M  END
$$$$
