2D_structures\o62_MMV1782210_2D.pdb
 OpenBabel02282413353D

 32 34  0  0  0  0  0  0  0  0999 V2000
    5.6680    1.8550    0.0000 N   0  0  0  0  0  0  0  0  0  0  0  0
    4.6290    0.7730    0.0000 C   0  0  0  0  0  0  0  0  0  0  0  0
    3.1720    1.1330    0.0000 N   0  0  0  0  0  0  0  0  0  0  0  0
    2.1330    0.0510    0.0000 C   0  0  0  0  0  0  0  0  0  0  0  0
    2.5500   -1.3900    0.0000 C   0  0  0  0  0  0  0  0  0  0  0  0
    1.3090   -2.2320    0.0000 N   0  0  0  0  0  0  0  0  0  0  0  0
    0.1240   -1.3110    0.0000 C   0  0  0  0  0  0  0  0  0  0  0  0
    0.6340    0.1000    0.0000 N   0  0  0  0  0  0  0  0  0  0  0  0
   -0.2080    1.3410    0.0000 C   0  0  0  0  0  0  0  0  0  0  0  0
   -1.7040    1.2330    0.0000 C   0  0  0  0  0  0  0  0  0  0  0  0
   -3.0540    1.8870    0.0000 C   0  0  0  0  0  0  0  0  0  0  0  0
   -2.9460    0.3910    0.0000 C   0  0  0  0  0  0  0  0  0  0  0  0
   -4.4000    0.0250    0.0000 C   0  0  0  0  0  0  0  0  0  0  0  0
   -5.8550   -0.3420    0.0000 O   0  0  0  0  0  0  0  0  0  0  0  0
   -2.3320   -0.9780    0.0000 C   0  0  0  0  0  0  0  0  0  0  0  0
   -1.7190   -2.3470    0.0000 O   0  0  0  0  0  0  0  0  0  0  0  0
    4.0060   -1.7490    0.0000 C   0  0  0  0  0  0  0  0  0  0  0  0
    4.4230   -3.1900    0.0000 O   0  0  0  0  0  0  0  0  0  0  0  0
    5.0460   -0.6680    0.0000 N   0  0  0  0  0  0  0  0  0  0  0  0
    7.1240    1.4960    0.0000 H   0  0  0  0  0  0  0  0  0  0  0  0
    5.2510    3.2960    0.0000 H   0  0  0  0  0  0  0  0  0  0  0  0
   -0.8210   -1.8600    0.0000 H   0  0  0  0  0  0  0  0  0  0  0  0
    0.4460    2.6910    0.0000 H   0  0  0  0  0  0  0  0  0  0  0  0
   -2.6440    3.3300    0.0000 H   0  0  0  0  0  0  0  0  0  0  0  0
   -4.3700    2.1880    0.0000 H   0  0  0  0  0  0  0  0  0  0  0  0
   -4.8870    1.2840    0.0000 H   0  0  0  0  0  0  0  0  0  0  0  0
   -4.2490   -1.1810    0.0000 H   0  0  0  0  0  0  0  0  0  0  0  0
   -6.8990    0.7350    0.0000 H   0  0  0  0  0  0  0  0  0  0  0  0
   -0.9630   -0.3640    0.0000 H   0  0  0  0  0  0  0  0  0  0  0  0
   -3.3720   -1.6060    0.0000 H   0  0  0  0  0  0  0  0  0  0  0  0
   -2.5970   -3.5620    0.0000 H   0  0  0  0  0  0  0  0  0  0  0  0
    6.5020   -1.0270    0.0000 H   0  0  0  0  0  0  0  0  0  0  0  0
  1  2  1  0  0  0  0
  1 20  1  0  0  0  0
  1 21  1  0  0  0  0
  2  3  2  0  0  0  0
  2 19  1  0  0  0  0
  3  4  1  0  0  0  0
  4  5  2  0  0  0  0
  4  8  1  0  0  0  0
  5  6  1  0  0  0  0
  5 17  1  0  0  0  0
  6  7  2  0  0  0  0
  7  8  1  0  0  0  0
  7 22  1  0  0  0  0
  8  9  1  0  0  0  0
  9 10  2  0  0  0  0
  9 23  1  0  0  0  0
 10 11  1  0  0  0  0
 10 12  1  0  0  0  0
 11 12  1  0  0  0  0
 11 24  1  0  0  0  0
 11 25  1  0  0  0  0
 12 13  1  0  0  0  0
 12 15  1  0  0  0  0
 13 14  1  0  0  0  0
 13 26  1  0  0  0  0
 13 27  1  0  0  0  0
 14 28  1  0  0  0  0
 15 16  1  0  0  0  0
 15 29  1  0  0  0  0
 15 30  1  0  0  0  0
 16 31  1  0  0  0  0
 17 18  2  0  0  0  0
 17 19  1  0  0  0  0
 19 32  1  0  0  0  0
M  END
$$$$
