2D_structures\o63_MMV1782208_2D.pdb
 OpenBabel02282413353D

 47 50  0  0  1  0  0  0  0  0999 V2000
    1.3070    4.3990    0.0000 C   0  0  0  0  0  0  0  0  0  0  0  0
    0.7190    3.0190    0.0000 N   0  0  0  0  0  0  0  0  0  0  0  0
   -0.7790    2.9500    0.0000 C   0  0  0  0  0  0  0  0  0  0  0  0
   -1.4920    4.2690    0.0000 O   0  0  0  0  0  0  0  0  0  0  0  0
   -1.6590    1.7350    0.0000 C   0  0  1  0  0  0  0  0  0  0  0  0
   -1.2580    0.2890    0.0000 C   0  0  0  0  0  0  0  0  0  0  0  0
   -1.9560   -1.0380    0.0000 O   0  0  0  0  0  0  0  0  0  0  0  0
    0.1220   -0.2980    0.0000 N   0  0  0  0  0  0  0  0  0  0  0  0
    0.1920   -1.7960    0.0000 C   0  0  0  0  0  0  0  0  0  0  0  0
   -1.0710   -2.6060    0.0000 C   0  0  0  0  0  0  0  0  0  0  0  0
   -1.0010   -4.1040    0.0000 C   0  0  0  0  0  0  0  0  0  0  0  0
    0.3310   -4.7930    0.0000 C   0  0  0  0  0  0  0  0  0  0  0  0
    1.5940   -3.9840    0.0000 C   0  0  0  0  0  0  0  0  0  0  0  0
    1.5240   -2.4850    0.0000 C   0  0  0  0  0  0  0  0  0  0  0  0
    1.4420    0.4150    0.0000 C   0  0  0  0  0  0  0  0  0  0  0  0
    2.5880   -0.5530    0.0000 C   0  0  0  0  0  0  0  0  0  0  0  0
    3.9990   -0.0450    0.0000 C   0  0  0  0  0  0  0  0  0  0  0  0
    4.2650    1.4310    0.0000 C   0  0  0  0  0  0  0  0  0  0  0  0
    3.1190    2.3990    0.0000 C   0  0  0  0  0  0  0  0  0  0  0  0
    1.7080    1.8910    0.0000 C   0  0  0  0  0  0  0  0  0  0  0  0
    5.1450   -1.0130    0.0000 C   0  0  0  0  0  0  0  0  0  0  0  0
    6.2910   -1.9820    0.0000 F   0  0  0  0  0  0  0  0  0  0  0  0
    6.1130    0.1320    0.0000 F   0  0  0  0  0  0  0  0  0  0  0  0
    4.1770   -2.1590    0.0000 F   0  0  0  0  0  0  0  0  0  0  0  0
   -2.9790    1.0220    0.0000 C   0  0  0  0  0  0  0  0  0  0  0  0
   -3.0210   -0.4770    0.0000 C   0  0  0  0  0  0  0  0  0  0  0  0
   -4.3410   -1.1900    0.0000 C   0  0  0  0  0  0  0  0  0  0  0  0
   -5.6180   -0.4040    0.0000 C   0  0  0  0  0  0  0  0  0  0  0  0
   -5.5760    1.0960    0.0000 C   0  0  0  0  0  0  0  0  0  0  0  0
   -4.2560    1.8090    0.0000 C   0  0  0  0  0  0  0  0  0  0  0  0
    1.8940    5.7800    0.0000 H   0  0  0  0  0  0  0  0  0  0  0  0
   -0.0730    4.9870    0.0000 H   0  0  0  0  0  0  0  0  0  0  0  0
    2.7480    3.9850    0.0000 H   0  0  0  0  0  0  0  0  0  0  0  0
   -2.6480    2.8630    0.0000 H   0  0  0  0  0  0  0  0  0  0  0  0
   -2.4030   -1.9170    0.0000 H   0  0  0  0  0  0  0  0  0  0  0  0
   -2.2640   -4.9140    0.0000 H   0  0  0  0  0  0  0  0  0  0  0  0
    0.4010   -6.2920    0.0000 H   0  0  0  0  0  0  0  0  0  0  0  0
    2.9260   -4.6730    0.0000 H   0  0  0  0  0  0  0  0  0  0  0  0
    2.2430   -2.1400    0.0000 H   0  0  0  0  0  0  0  0  0  0  0  0
    2.5440   -1.3490    0.0000 H   0  0  0  0  0  0  0  0  0  0  0  0
    5.6760    1.9390    0.0000 H   0  0  0  0  0  0  0  0  0  0  0  0
    3.5630    3.8320    0.0000 H   0  0  0  0  0  0  0  0  0  0  0  0
   -1.8500   -1.4140    0.0000 H   0  0  0  0  0  0  0  0  0  0  0  0
   -4.3840   -2.6900    0.0000 H   0  0  0  0  0  0  0  0  0  0  0  0
   -6.9380   -1.1160    0.0000 H   0  0  0  0  0  0  0  0  0  0  0  0
   -6.8530    1.8820    0.0000 H   0  0  0  0  0  0  0  0  0  0  0  0
   -4.2130    3.3080    0.0000 H   0  0  0  0  0  0  0  0  0  0  0  0
  1  2  1  0  0  0  0
  1 31  1  0  0  0  0
  1 32  1  0  0  0  0
  1 33  1  0  0  0  0
  2  3  1  0  0  0  0
  2 20  1  0  0  0  0
  3  4  2  0  0  0  0
  3  5  1  0  0  0  0
  5  6  1  0  0  0  0
  5 25  1  0  0  0  0
  5 34  1  6  0  0  0
  6  7  2  0  0  0  0
  6  8  1  0  0  0  0
  8  9  1  0  0  0  0
  8 15  1  0  0  0  0
  9 10  2  0  0  0  0
  9 14  1  0  0  0  0
 10 11  1  0  0  0  0
 10 35  1  0  0  0  0
 11 12  2  0  0  0  0
 11 36  1  0  0  0  0
 12 13  1  0  0  0  0
 12 37  1  0  0  0  0
 13 14  2  0  0  0  0
 13 38  1  0  0  0  0
 14 39  1  0  0  0  0
 15 16  2  0  0  0  0
 15 20  1  0  0  0  0
 16 17  1  0  0  0  0
 16 40  1  0  0  0  0
 17 18  2  0  0  0  0
 17 21  1  0  0  0  0
 18 19  1  0  0  0  0
 18 41  1  0  0  0  0
 19 20  2  0  0  0  0
 19 42  1  0  0  0  0
 21 22  1  0  0  0  0
 21 23  1  0  0  0  0
 21 24  1  0  0  0  0
 25 26  2  0  0  0  0
 25 30  1  0  0  0  0
 26 27  1  0  0  0  0
 26 43  1  0  0  0  0
 27 28  2  0  0  0  0
 27 44  1  0  0  0  0
 28 29  1  0  0  0  0
 28 45  1  0  0  0  0
 29 30  2  0  0  0  0
 29 46  1  0  0  0  0
 30 47  1  0  0  0  0
M  END
$$$$
