2D_structures\o65_MMV1782353_2D.pdb
 OpenBabel02282413353D

 95100  0  0  1  0  0  0  0  0999 V2000
   -1.8510   -5.6740    0.0000 C   0  0  0  0  0  0  0  0  0  0  0  0
   -1.1060   -4.3720    0.0000 C   0  0  0  0  0  0  0  0  0  0  0  0
   -0.3610   -3.0700    0.0000 C   0  0  0  0  0  0  0  0  0  0  0  0
    0.1960   -5.1170    0.0000 C   0  0  0  0  0  0  0  0  0  0  0  0
   -2.4080   -3.6280    0.0000 N   0  0  0  0  0  0  0  0  0  0  0  0
   -2.4140   -2.1280    0.0000 C   0  0  0  0  0  0  0  0  0  0  0  0
   -1.6000   -1.7780    0.0000 O   0  0  0  0  0  0  0  0  0  0  0  0
   -3.7160   -1.3830    0.0000 C   0  0  1  0  0  0  0  0  0  0  0  0
   -5.1940   -1.1280    0.0000 C   0  0  0  0  0  0  0  0  0  0  0  0
   -5.7130    0.2790    0.0000 N   0  0  0  0  0  0  0  0  0  0  0  0
   -7.1910    0.5340    0.0000 C   0  0  0  0  0  0  0  0  0  0  0  0
   -8.6690    0.7880    0.0000 C   0  0  0  0  0  0  0  0  0  0  0  0
   -9.6290   -0.3650    0.0000 C   0  0  0  0  0  0  0  0  0  0  0  0
  -11.1070   -0.1100    0.0000 N   0  0  0  0  0  0  0  0  0  0  0  0
  -11.6260    1.2970    0.0000 C   0  0  0  0  0  0  0  0  0  0  0  0
  -13.0190    1.8540    0.0000 O   0  0  0  0  0  0  0  0  0  0  0  0
  -12.9200    3.3510    0.0000 C   0  0  0  0  0  0  0  0  0  0  0  0
  -11.4660    3.7190    0.0000 C   0  0  0  0  0  0  0  0  0  0  0  0
  -10.6660    2.4500    0.0000 C   0  0  0  0  0  0  0  0  0  0  0  0
   -9.1880    2.1960    0.0000 C   0  0  0  0  0  0  0  0  0  0  0  0
   -4.7530    1.4320    0.0000 C   0  0  0  0  0  0  0  0  0  0  0  0
   -3.2750    1.1780    0.0000 C   0  0  0  0  0  0  0  0  0  0  0  0
   -2.7560   -0.2300    0.0000 N   0  0  0  0  0  0  0  0  0  0  0  0
   -1.2780   -0.4850    0.0000 C   0  0  0  0  0  0  0  0  0  0  0  0
    0.2000   -0.7390    0.0000 C   0  0  1  0  0  0  0  0  0  0  0  0
    0.4550    0.7390    0.0000 O   0  0  0  0  0  0  0  0  0  0  0  0
    1.6790   -0.9940    0.0000 C   0  0  0  0  0  0  0  0  0  0  0  0
    3.1570   -1.2480    0.0000 C   0  0  1  0  0  0  0  0  0  0  0  0
    3.4110    0.2300    0.0000 C   0  0  0  0  0  0  0  0  0  0  0  0
    3.6660    1.7080    0.0000 C   0  0  0  0  0  0  0  0  0  0  0  0
    5.0730    2.2270    0.0000 C   0  0  0  0  0  0  0  0  0  0  0  0
    5.3280    3.7050    0.0000 C   0  0  0  0  0  0  0  0  0  0  0  0
    4.1750    4.6650    0.0000 C   0  0  0  0  0  0  0  0  0  0  0  0
    2.7680    4.1460    0.0000 C   0  0  0  0  0  0  0  0  0  0  0  0
    2.5130    2.6680    0.0000 C   0  0  0  0  0  0  0  0  0  0  0  0
    4.6350   -1.5030    0.0000 C   0  0  0  0  0  0  0  0  0  0  0  0
    5.1540   -2.9100    0.0000 O   0  0  0  0  0  0  0  0  0  0  0  0
    5.5950   -0.3500    0.0000 N   0  0  0  0  0  0  0  0  0  0  0  0
    7.0730   -0.6040    0.0000 C   0  0  1  0  0  0  0  0  0  0  0  0
    8.4660   -1.1610    0.0000 C   0  0  1  0  0  0  0  0  0  0  0  0
    7.7670   -2.4880    0.0000 O   0  0  0  0  0  0  0  0  0  0  0  0
    9.4250   -0.0080    0.0000 C   0  0  0  0  0  0  0  0  0  0  0  0
    8.6250    1.2610    0.0000 C   0  0  0  0  0  0  0  0  0  0  0  0
    9.0330    2.7040    0.0000 C   0  0  0  0  0  0  0  0  0  0  0  0
    7.9870    3.7790    0.0000 C   0  0  0  0  0  0  0  0  0  0  0  0
    6.5330    3.4110    0.0000 C   0  0  0  0  0  0  0  0  0  0  0  0
    6.1250    1.9670    0.0000 C   0  0  0  0  0  0  0  0  0  0  0  0
    7.1710    0.8920    0.0000 C   0  0  0  0  0  0  0  0  0  0  0  0
   -2.5950   -6.9770    0.0000 H   0  0  0  0  0  0  0  0  0  0  0  0
   -1.1410   -6.2050    0.0000 H   0  0  0  0  0  0  0  0  0  0  0  0
   -3.2340   -5.0940    0.0000 H   0  0  0  0  0  0  0  0  0  0  0  0
    0.5370   -1.8690    0.0000 H   0  0  0  0  0  0  0  0  0  0  0  0
    0.4560   -3.4130    0.0000 H   0  0  0  0  0  0  0  0  0  0  0  0
   -1.0700   -2.5400    0.0000 H   0  0  0  0  0  0  0  0  0  0  0  0
    1.4980   -5.8620    0.0000 H   0  0  0  0  0  0  0  0  0  0  0  0
   -0.1470   -5.9340    0.0000 H   0  0  0  0  0  0  0  0  0  0  0  0
    0.7270   -4.4080    0.0000 H   0  0  0  0  0  0  0  0  0  0  0  0
   -3.7860   -4.2190    0.0000 H   0  0  0  0  0  0  0  0  0  0  0  0
   -4.2230   -2.7940    0.0000 H   0  0  0  0  0  0  0  0  0  0  0  0
   -5.1880   -2.6280    0.0000 H   0  0  0  0  0  0  0  0  0  0  0  0
   -6.6270   -1.5730    0.0000 H   0  0  0  0  0  0  0  0  0  0  0  0
   -7.6240   -0.9020    0.0000 H   0  0  0  0  0  0  0  0  0  0  0  0
   -7.1180    2.0320    0.0000 H   0  0  0  0  0  0  0  0  0  0  0  0
   -9.1100   -1.7720    0.0000 H   0  0  0  0  0  0  0  0  0  0  0  0
  -14.0730    4.3100    0.0000 H   0  0  0  0  0  0  0  0  0  0  0  0
  -10.9100    5.1120    0.0000 H   0  0  0  0  0  0  0  0  0  0  0  0
   -8.2280    3.3490    0.0000 H   0  0  0  0  0  0  0  0  0  0  0  0
   -5.9550    2.3300    0.0000 H   0  0  0  0  0  0  0  0  0  0  0  0
   -4.2460    2.8440    0.0000 H   0  0  0  0  0  0  0  0  0  0  0  0
   -3.2810    2.6780    0.0000 H   0  0  0  0  0  0  0  0  0  0  0  0
   -1.8420    1.6220    0.0000 H   0  0  0  0  0  0  0  0  0  0  0  0
   -0.8450    0.9520    0.0000 H   0  0  0  0  0  0  0  0  0  0  0  0
   -1.5330   -1.9630    0.0000 H   0  0  0  0  0  0  0  0  0  0  0  0
    0.1280   -2.2370    0.0000 H   0  0  0  0  0  0  0  0  0  0  0  0
    1.8620    1.2580    0.0000 H   0  0  0  0  0  0  0  0  0  0  0  0
    1.4240   -2.4720    0.0000 H   0  0  0  0  0  0  0  0  0  0  0  0
    1.9330    0.4850    0.0000 H   0  0  0  0  0  0  0  0  0  0  0  0
    2.9020   -2.7260    0.0000 H   0  0  0  0  0  0  0  0  0  0  0  0
    1.9330    0.4850    0.0000 H   0  0  0  0  0  0  0  0  0  0  0  0
    4.9070    0.3410    0.0000 H   0  0  0  0  0  0  0  0  0  0  0  0
    5.9600    1.0170    0.0000 H   0  0  0  0  0  0  0  0  0  0  0  0
    6.7350    4.2240    0.0000 H   0  0  0  0  0  0  0  0  0  0  0  0
    4.4300    6.1430    0.0000 H   0  0  0  0  0  0  0  0  0  0  0  0
    1.6150    5.1060    0.0000 H   0  0  0  0  0  0  0  0  0  0  0  0
    1.1060    2.1490    0.0000 H   0  0  0  0  0  0  0  0  0  0  0  0
    4.9080    0.9840    0.0000 H   0  0  0  0  0  0  0  0  0  0  0  0
    6.6650   -2.0480    0.0000 H   0  0  0  0  0  0  0  0  0  0  0  0
    9.7130   -1.9950    0.0000 H   0  0  0  0  0  0  0  0  0  0  0  0
    8.5670   -3.7570    0.0000 H   0  0  0  0  0  0  0  0  0  0  0  0
   10.4720   -1.0830    0.0000 H   0  0  0  0  0  0  0  0  0  0  0  0
   10.6040    0.9200    0.0000 H   0  0  0  0  0  0  0  0  0  0  0  0
   10.4870    3.0730    0.0000 H   0  0  0  0  0  0  0  0  0  0  0  0
    8.3950    5.2230    0.0000 H   0  0  0  0  0  0  0  0  0  0  0  0
    5.7780    4.7070    0.0000 H   0  0  0  0  0  0  0  0  0  0  0  0
    4.7270    1.4240    0.0000 H   0  0  0  0  0  0  0  0  0  0  0  0
  1  2  1  0  0  0  0
  1 49  1  0  0  0  0
  1 50  1  0  0  0  0
  1 51  1  0  0  0  0
  2  3  1  0  0  0  0
  2  4  1  0  0  0  0
  2  5  1  0  0  0  0
  3 52  1  0  0  0  0
  3 53  1  0  0  0  0
  3 54  1  0  0  0  0
  4 55  1  0  0  0  0
  4 56  1  0  0  0  0
  4 57  1  0  0  0  0
  5  6  1  0  0  0  0
  5 58  1  0  0  0  0
  6  7  2  0  0  0  0
  6  8  1  0  0  0  0
  8  9  1  0  0  0  0
  8 23  1  0  0  0  0
  8 59  1  6  0  0  0
  9 10  1  0  0  0  0
  9 60  1  0  0  0  0
  9 61  1  0  0  0  0
 10 11  1  0  0  0  0
 10 21  1  0  0  0  0
 11 12  1  0  0  0  0
 11 62  1  0  0  0  0
 11 63  1  0  0  0  0
 12 13  2  0  0  0  0
 12 20  1  0  0  0  0
 13 14  1  0  0  0  0
 13 64  1  0  0  0  0
 14 15  2  0  0  0  0
 15 16  1  0  0  0  0
 15 19  1  0  0  0  0
 16 17  1  0  0  0  0
 17 18  2  0  0  0  0
 17 65  1  0  0  0  0
 18 19  1  0  0  0  0
 18 66  1  0  0  0  0
 19 20  2  0  0  0  0
 20 67  1  0  0  0  0
 21 22  1  0  0  0  0
 21 68  1  0  0  0  0
 21 69  1  0  0  0  0
 22 23  1  0  0  0  0
 22 70  1  0  0  0  0
 22 71  1  0  0  0  0
 23 24  1  0  0  0  0
 24 25  1  0  0  0  0
 24 72  1  0  0  0  0
 24 73  1  0  0  0  0
 25 26  1  0  0  0  0
 25 27  1  0  0  0  0
 25 74  1  6  0  0  0
 26 75  1  0  0  0  0
 27 28  1  0  0  0  0
 27 76  1  0  0  0  0
 27 77  1  0  0  0  0
 28 29  1  0  0  0  0
 28 36  1  0  0  0  0
 28 78  1  6  0  0  0
 29 30  1  0  0  0  0
 29 79  1  0  0  0  0
 29 80  1  0  0  0  0
 30 31  2  0  0  0  0
 30 35  1  0  0  0  0
 31 32  1  0  0  0  0
 31 81  1  0  0  0  0
 32 33  2  0  0  0  0
 32 82  1  0  0  0  0
 33 34  1  0  0  0  0
 33 83  1  0  0  0  0
 34 35  2  0  0  0  0
 34 84  1  0  0  0  0
 35 85  1  0  0  0  0
 36 37  2  0  0  0  0
 36 38  1  0  0  0  0
 38 39  1  0  0  0  0
 38 86  1  0  0  0  0
 39 40  1  0  0  0  0
 39 48  1  0  0  0  0
 39 87  1  1  0  0  0
 40 41  1  0  0  0  0
 40 42  1  0  0  0  0
 40 88  1  1  0  0  0
 41 89  1  0  0  0  0
 42 43  1  0  0  0  0
 42 90  1  0  0  0  0
 42 91  1  0  0  0  0
 43 44  2  0  0  0  0
 43 48  1  0  0  0  0
 44 45  1  0  0  0  0
 44 92  1  0  0  0  0
 45 46  2  0  0  0  0
 45 93  1  0  0  0  0
 46 47  1  0  0  0  0
 46 94  1  0  0  0  0
 47 48  2  0  0  0  0
 47 95  1  0  0  0  0
M  END
$$$$
