2D_structures\o6_MMV1782098_2D.pdb
 OpenBabel02282413353D

 36 36  0  0  1  0  0  0  0  0999 V2000
   -4.3110   -1.5140    0.0000 O   0  0  0  0  0  0  0  0  0  0  0  0
   -3.2010   -0.5050    0.0000 C   0  0  1  0  0  0  0  0  0  0  0  0
   -2.5020    0.8220    0.0000 C   0  0  1  0  0  0  0  0  0  0  0  0
   -3.9310    1.2800    0.0000 O   0  0  0  0  0  0  0  0  0  0  0  0
   -1.0030    0.8810    0.0000 C   0  0  1  0  0  0  0  0  0  0  0  0
   -0.2030   -0.3880    0.0000 N   0  0  0  0  0  0  0  0  0  0  0  0
    1.2960   -0.3290    0.0000 C   0  0  0  0  0  0  0  0  0  0  0  0
    2.7950   -0.2700    0.0000 C   0  0  0  0  0  0  0  0  0  0  0  0
    4.2930   -0.2110    0.0000 C   0  0  0  0  0  0  0  0  0  0  0  0
    5.7920   -0.1530    0.0000 C   0  0  0  0  0  0  0  0  0  0  0  0
   -0.9020   -1.7150    0.0000 C   0  0  0  0  0  0  0  0  0  0  0  0
   -2.4000   -1.7740    0.0000 C   0  0  1  0  0  0  0  0  0  0  0  0
   -2.0820   -3.2400    0.0000 O   0  0  0  0  0  0  0  0  0  0  0  0
   -1.3220    2.3470    0.0000 C   0  0  0  0  0  0  0  0  0  0  0  0
   -1.6400    3.8130    0.0000 O   0  0  0  0  0  0  0  0  0  0  0  0
   -5.7400   -1.0560    0.0000 H   0  0  0  0  0  0  0  0  0  0  0  0
   -4.3870    0.4130    0.0000 H   0  0  0  0  0  0  0  0  0  0  0  0
   -2.4920    1.6190    0.0000 H   0  0  0  0  0  0  0  0  0  0  0  0
   -4.2490    2.7460    0.0000 H   0  0  0  0  0  0  0  0  0  0  0  0
    0.3050    1.6140    0.0000 H   0  0  0  0  0  0  0  0  0  0  0  0
    1.4200    1.1660    0.0000 H   0  0  0  0  0  0  0  0  0  0  0  0
    1.5370   -1.8090    0.0000 H   0  0  0  0  0  0  0  0  0  0  0  0
    2.7360    1.2290    0.0000 H   0  0  0  0  0  0  0  0  0  0  0  0
    2.8530   -1.7690    0.0000 H   0  0  0  0  0  0  0  0  0  0  0  0
    4.3520   -1.7100    0.0000 H   0  0  0  0  0  0  0  0  0  0  0  0
    4.2350    1.2870    0.0000 H   0  0  0  0  0  0  0  0  0  0  0  0
    7.2910   -0.0940    0.0000 H   0  0  0  0  0  0  0  0  0  0  0  0
    5.7340    1.3460    0.0000 H   0  0  0  0  0  0  0  0  0  0  0  0
    5.8510   -1.6510    0.0000 H   0  0  0  0  0  0  0  0  0  0  0  0
    0.4610   -2.3430    0.0000 H   0  0  0  0  0  0  0  0  0  0  0  0
   -1.1040   -3.2010    0.0000 H   0  0  0  0  0  0  0  0  0  0  0  0
   -3.7890   -2.3420    0.0000 H   0  0  0  0  0  0  0  0  0  0  0  0
   -3.1930   -4.2480    0.0000 H   0  0  0  0  0  0  0  0  0  0  0  0
    0.1440    2.6650    0.0000 H   0  0  0  0  0  0  0  0  0  0  0  0
   -2.1150    2.2740    0.0000 H   0  0  0  0  0  0  0  0  0  0  0  0
   -0.5290    4.8210    0.0000 H   0  0  0  0  0  0  0  0  0  0  0  0
  1  2  1  0  0  0  0
  1 16  1  0  0  0  0
  2  3  1  0  0  0  0
  2 12  1  0  0  0  0
  2 17  1  6  0  0  0
  3  4  1  0  0  0  0
  3  5  1  0  0  0  0
  3 18  1  6  0  0  0
  4 19  1  0  0  0  0
  5  6  1  0  0  0  0
  5 14  1  0  0  0  0
  5 20  1  1  0  0  0
  6  7  1  0  0  0  0
  6 11  1  0  0  0  0
  7  8  1  0  0  0  0
  7 21  1  0  0  0  0
  7 22  1  0  0  0  0
  8  9  1  0  0  0  0
  8 23  1  0  0  0  0
  8 24  1  0  0  0  0
  9 10  1  0  0  0  0
  9 25  1  0  0  0  0
  9 26  1  0  0  0  0
 10 27  1  0  0  0  0
 10 28  1  0  0  0  0
 10 29  1  0  0  0  0
 11 12  1  0  0  0  0
 11 30  1  0  0  0  0
 11 31  1  0  0  0  0
 12 13  1  0  0  0  0
 12 32  1  6  0  0  0
 13 33  1  0  0  0  0
 14 15  1  0  0  0  0
 14 34  1  0  0  0  0
 14 35  1  0  0  0  0
 15 36  1  0  0  0  0
M  END
$$$$
