2D_structures\o70_MMV1782386_2D.pdb
 OpenBabel02282413353D

 55 58  0  0  1  0  0  0  0  0999 V2000
   -3.8280   -5.7700    0.0000 C   0  0  0  0  0  0  0  0  0  0  0  0
   -2.8600   -4.6240    0.0000 N   0  0  0  0  0  0  0  0  0  0  0  0
   -3.3690   -3.2130    0.0000 O   0  0  0  0  0  0  0  0  0  0  0  0
   -1.3840   -4.8880    0.0000 C   0  0  0  0  0  0  0  0  0  0  0  0
   -0.8750   -6.2990    0.0000 O   0  0  0  0  0  0  0  0  0  0  0  0
   -0.4160   -3.7420    0.0000 C   0  0  0  0  0  0  0  0  0  0  0  0
   -0.9250   -2.3310    0.0000 C   0  0  0  0  0  0  0  0  0  0  0  0
    0.0420   -1.1850    0.0000 C   0  0  0  0  0  0  0  0  0  0  0  0
   -0.1620    0.3010    0.0000 C   0  0  0  0  0  0  0  0  0  0  0  0
   -1.4850    1.0090    0.0000 C   0  0  0  0  0  0  0  0  0  0  0  0
   -2.8070    1.7170    0.0000 N   0  0  0  0  0  0  0  0  0  0  0  0
   -4.1570    1.0630    0.0000 C   0  0  0  0  0  0  0  0  0  0  0  0
   -5.1960    2.1450    0.0000 C   0  0  0  0  0  0  0  0  0  0  0  0
   -4.4880    3.4680    0.0000 C   0  0  0  0  0  0  0  0  0  0  0  0
   -3.0120    3.2030    0.0000 C   0  0  1  0  0  0  0  0  0  0  0  0
   -2.9030    4.6990    0.0000 C   0  0  0  0  0  0  0  0  0  0  0  0
   -3.8180    5.4990    0.0000 O   0  0  0  0  0  0  0  0  0  0  0  0
   -1.5530    5.3530    0.0000 N   0  0  0  0  0  0  0  0  0  0  0  0
    1.1880    0.9550    0.0000 C   0  0  0  0  0  0  0  0  0  0  0  0
    2.2270   -0.1270    0.0000 N   0  0  0  0  0  0  0  0  0  0  0  0
    3.7120    0.0780    0.0000 C   0  0  0  0  0  0  0  0  0  0  0  0
    5.1980    0.2820    0.0000 C   0  0  0  0  0  0  0  0  0  0  0  0
    6.1190   -0.9020    0.0000 C   0  0  0  0  0  0  0  0  0  0  0  0
    7.6050   -0.6980    0.0000 C   0  0  0  0  0  0  0  0  0  0  0  0
    8.1700    0.6910    0.0000 C   0  0  0  0  0  0  0  0  0  0  0  0
    9.6560    0.8960    0.0000 F   0  0  0  0  0  0  0  0  0  0  0  0
    7.2500    1.8760    0.0000 C   0  0  0  0  0  0  0  0  0  0  0  0
    5.7640    1.6710    0.0000 C   0  0  0  0  0  0  0  0  0  0  0  0
    1.5190   -1.4490    0.0000 C   0  0  0  0  0  0  0  0  0  0  0  0
    2.0280   -2.8600    0.0000 C   0  0  0  0  0  0  0  0  0  0  0  0
    1.0600   -4.0070    0.0000 N   0  0  0  0  0  0  0  0  0  0  0  0
   -4.7950   -6.9160    0.0000 H   0  0  0  0  0  0  0  0  0  0  0  0
   -4.9740   -4.8030    0.0000 H   0  0  0  0  0  0  0  0  0  0  0  0
   -2.6810   -6.7370    0.0000 H   0  0  0  0  0  0  0  0  0  0  0  0
   -4.8460   -2.9480    0.0000 H   0  0  0  0  0  0  0  0  0  0  0  0
   -2.4020   -2.0660    0.0000 H   0  0  0  0  0  0  0  0  0  0  0  0
   -0.7770    2.3320    0.0000 H   0  0  0  0  0  0  0  0  0  0  0  0
   -2.1930   -0.3130    0.0000 H   0  0  0  0  0  0  0  0  0  0  0  0
   -3.3660   -0.2110    0.0000 H   0  0  0  0  0  0  0  0  0  0  0  0
   -5.3420    0.1430    0.0000 H   0  0  0  0  0  0  0  0  0  0  0  0
   -6.1640    0.9990    0.0000 H   0  0  0  0  0  0  0  0  0  0  0  0
   -6.4370    2.9880    0.0000 H   0  0  0  0  0  0  0  0  0  0  0  0
   -5.8780    4.0340    0.0000 H   0  0  0  0  0  0  0  0  0  0  0  0
   -4.2950    4.6670    0.0000 H   0  0  0  0  0  0  0  0  0  0  0  0
   -1.5130    3.2510    0.0000 H   0  0  0  0  0  0  0  0  0  0  0  0
   -1.4440    6.8490    0.0000 H   0  0  0  0  0  0  0  0  0  0  0  0
   -0.3120    4.5110    0.0000 H   0  0  0  0  0  0  0  0  0  0  0  0
    1.4520    2.4320    0.0000 H   0  0  0  0  0  0  0  0  0  0  0  0
    3.9170   -1.4080    0.0000 H   0  0  0  0  0  0  0  0  0  0  0  0
    3.5080    1.5640    0.0000 H   0  0  0  0  0  0  0  0  0  0  0  0
    5.5530   -2.2920    0.0000 H   0  0  0  0  0  0  0  0  0  0  0  0
    8.5250   -1.8820    0.0000 H   0  0  0  0  0  0  0  0  0  0  0  0
    7.8160    3.2650    0.0000 H   0  0  0  0  0  0  0  0  0  0  0  0
    4.8440    2.8560    0.0000 H   0  0  0  0  0  0  0  0  0  0  0  0
    3.5040   -3.1250    0.0000 H   0  0  0  0  0  0  0  0  0  0  0  0
  1  2  1  0  0  0  0
  1 32  1  0  0  0  0
  1 33  1  0  0  0  0
  1 34  1  0  0  0  0
  2  3  1  0  0  0  0
  2  4  1  0  0  0  0
  3 35  1  0  0  0  0
  4  5  2  0  0  0  0
  4  6  1  0  0  0  0
  6  7  2  0  0  0  0
  6 31  1  0  0  0  0
  7  8  1  0  0  0  0
  7 36  1  0  0  0  0
  8  9  1  0  0  0  0
  8 29  2  0  0  0  0
  9 10  1  0  0  0  0
  9 19  2  0  0  0  0
 10 11  1  0  0  0  0
 10 37  1  0  0  0  0
 10 38  1  0  0  0  0
 11 12  1  0  0  0  0
 11 15  1  0  0  0  0
 12 13  1  0  0  0  0
 12 39  1  0  0  0  0
 12 40  1  0  0  0  0
 13 14  1  0  0  0  0
 13 41  1  0  0  0  0
 13 42  1  0  0  0  0
 14 15  1  0  0  0  0
 14 43  1  0  0  0  0
 14 44  1  0  0  0  0
 15 16  1  0  0  0  0
 15 45  1  6  0  0  0
 16 17  2  0  0  0  0
 16 18  1  0  0  0  0
 18 46  1  0  0  0  0
 18 47  1  0  0  0  0
 19 20  1  0  0  0  0
 19 48  1  0  0  0  0
 20 21  1  0  0  0  0
 20 29  1  0  0  0  0
 21 22  1  0  0  0  0
 21 49  1  0  0  0  0
 21 50  1  0  0  0  0
 22 23  2  0  0  0  0
 22 28  1  0  0  0  0
 23 24  1  0  0  0  0
 23 51  1  0  0  0  0
 24 25  2  0  0  0  0
 24 52  1  0  0  0  0
 25 26  1  0  0  0  0
 25 27  1  0  0  0  0
 27 28  2  0  0  0  0
 27 53  1  0  0  0  0
 28 54  1  0  0  0  0
 29 30  1  0  0  0  0
 30 31  2  0  0  0  0
 30 55  1  0  0  0  0
M  END
$$$$
