2D_structures\o75_MMV1613559_2D.pdb
 OpenBabel02282413353D

 50 50  0  0  1  0  0  0  0  0999 V2000
    6.6770    2.7980    0.0000 C   0  0  0  0  0  0  0  0  0  0  0  0
    5.4640    1.9150    0.0000 C   0  0  0  0  0  0  0  0  0  0  0  0
    4.3840    2.9560    0.0000 C   0  0  0  0  0  0  0  0  0  0  0  0
    6.1230    0.5680    0.0000 C   0  0  0  0  0  0  0  0  0  0  0  0
    4.6270    0.6710    0.0000 C   0  0  1  0  0  0  0  0  0  0  0  0
    4.2650   -0.7850    0.0000 C   0  0  0  0  0  0  0  0  0  0  0  0
    5.3450   -1.8260    0.0000 O   0  0  0  0  0  0  0  0  0  0  0  0
    2.8240   -1.2000    0.0000 N   0  0  0  0  0  0  0  0  0  0  0  0
    2.4620   -2.6560    0.0000 C   0  0  0  0  0  0  0  0  0  0  0  0
    1.0210   -3.0710    0.0000 C   0  0  0  0  0  0  0  0  0  0  0  0
   -0.0590   -2.0300    0.0000 C   0  0  0  0  0  0  0  0  0  0  0  0
   -1.1390   -0.9890    0.0000 C   0  0  0  0  0  0  0  0  0  0  0  0
   -2.2190    0.0520    0.0000 C   0  0  0  0  0  0  0  0  0  0  0  0
   -3.2990    1.0930    0.0000 C   0  0  0  0  0  0  0  0  0  0  0  0
   -4.3790    2.1340    0.0000 S   0  0  0  0  0  0  0  0  0  0  0  0
   -5.8210    1.7190    0.0000 C   0  0  0  0  0  0  0  0  0  0  0  0
   -7.2620    1.3040    0.0000 C   0  0  1  0  0  0  0  0  0  0  0  0
   -8.7040    0.8890    0.0000 N   0  0  0  0  0  0  0  0  0  0  0  0
   -6.8470   -0.1380    0.0000 C   0  0  0  0  0  0  0  0  0  0  0  0
   -7.8880   -1.2180    0.0000 O   0  0  0  0  0  0  0  0  0  0  0  0
   -5.4460   -0.6740    0.0000 O   0  0  0  0  0  0  0  0  0  0  0  0
    3.5430   -3.6970    0.0000 C   0  0  0  0  0  0  0  0  0  0  0  0
    3.1810   -5.1530    0.0000 O   0  0  0  0  0  0  0  0  0  0  0  0
    4.9840   -3.2820    0.0000 O   0  0  0  0  0  0  0  0  0  0  0  0
    6.0870    3.8600    0.0000 H   0  0  0  0  0  0  0  0  0  0  0  0
    7.5990    1.8120    0.0000 H   0  0  0  0  0  0  0  0  0  0  0  0
    7.8900    3.6810    0.0000 H   0  0  0  0  0  0  0  0  0  0  0  0
    5.1140    3.9270    0.0000 H   0  0  0  0  0  0  0  0  0  0  0  0
    3.3360    2.1050    0.0000 H   0  0  0  0  0  0  0  0  0  0  0  0
    3.3040    3.9970    0.0000 H   0  0  0  0  0  0  0  0  0  0  0  0
    6.2810   -0.9240    0.0000 H   0  0  0  0  0  0  0  0  0  0  0  0
    7.4560    0.7800    0.0000 H   0  0  0  0  0  0  0  0  0  0  0  0
    3.3350    1.0640    0.0000 H   0  0  0  0  0  0  0  0  0  0  0  0
    1.7440   -0.1590    0.0000 H   0  0  0  0  0  0  0  0  0  0  0  0
    0.6600   -4.5270    0.0000 H   0  0  0  0  0  0  0  0  0  0  0  0
   -1.1000   -3.1100    0.0000 H   0  0  0  0  0  0  0  0  0  0  0  0
    0.9820   -0.9500    0.0000 H   0  0  0  0  0  0  0  0  0  0  0  0
   -2.1800   -2.0690    0.0000 H   0  0  0  0  0  0  0  0  0  0  0  0
   -0.0980    0.0910    0.0000 H   0  0  0  0  0  0  0  0  0  0  0  0
   -1.1780    1.1320    0.0000 H   0  0  0  0  0  0  0  0  0  0  0  0
   -3.2600   -1.0280    0.0000 H   0  0  0  0  0  0  0  0  0  0  0  0
   -4.3400    0.0130    0.0000 H   0  0  0  0  0  0  0  0  0  0  0  0
   -2.2580    2.1730    0.0000 H   0  0  0  0  0  0  0  0  0  0  0  0
   -6.2360    3.1600    0.0000 H   0  0  0  0  0  0  0  0  0  0  0  0
   -5.2330    0.3390    0.0000 H   0  0  0  0  0  0  0  0  0  0  0  0
   -7.6770    2.7450    0.0000 H   0  0  0  0  0  0  0  0  0  0  0  0
   -9.7840    1.9300    0.0000 H   0  0  0  0  0  0  0  0  0  0  0  0
   -9.0650   -0.5670    0.0000 H   0  0  0  0  0  0  0  0  0  0  0  0
   -7.4730   -2.6590    0.0000 H   0  0  0  0  0  0  0  0  0  0  0  0
    4.2610   -6.1940    0.0000 H   0  0  0  0  0  0  0  0  0  0  0  0
  1  2  1  0  0  0  0
  1 25  1  0  0  0  0
  1 26  1  0  0  0  0
  1 27  1  0  0  0  0
  2  3  1  0  0  0  0
  2  4  1  0  0  0  0
  2  5  1  0  0  0  0
  3 28  1  0  0  0  0
  3 29  1  0  0  0  0
  3 30  1  0  0  0  0
  4  5  1  0  0  0  0
  4 31  1  0  0  0  0
  4 32  1  0  0  0  0
  5  6  1  0  0  0  0
  5 33  1  6  0  0  0
  6  7  2  0  0  0  0
  6  8  1  0  0  0  0
  8  9  1  0  0  0  0
  8 34  1  0  0  0  0
  9 10  2  0  0  0  0
  9 22  1  0  0  0  0
 10 11  1  0  0  0  0
 10 35  1  0  0  0  0
 11 12  1  0  0  0  0
 11 36  1  0  0  0  0
 11 37  1  0  0  0  0
 12 13  1  0  0  0  0
 12 38  1  0  0  0  0
 12 39  1  0  0  0  0
 13 14  1  0  0  0  0
 13 40  1  0  0  0  0
 13 41  1  0  0  0  0
 14 15  1  0  0  0  0
 14 42  1  0  0  0  0
 14 43  1  0  0  0  0
 15 16  1  0  0  0  0
 16 17  1  0  0  0  0
 16 44  1  0  0  0  0
 16 45  1  0  0  0  0
 17 18  1  0  0  0  0
 17 19  1  0  0  0  0
 17 46  1  1  0  0  0
 18 47  1  0  0  0  0
 18 48  1  0  0  0  0
 19 20  1  0  0  0  0
 19 21  2  0  0  0  0
 20 49  1  0  0  0  0
 22 23  1  0  0  0  0
 22 24  2  0  0  0  0
 23 50  1  0  0  0  0
M  END
$$$$
