2D_structures\o8_MMV1633963_2D.pdb
 OpenBabel02282413353D

 34 35  0  0  0  0  0  0  0  0999 V2000
   -5.8080    2.7520    0.0000 Cl  0  0  0  0  0  0  0  0  0  0  0  0
   -5.6400    1.2620    0.0000 C   0  0  0  0  0  0  0  0  0  0  0  0
   -6.8470    0.3710    0.0000 C   0  0  0  0  0  0  0  0  0  0  0  0
   -6.6790   -1.1190    0.0000 C   0  0  0  0  0  0  0  0  0  0  0  0
   -5.3050   -1.7190    0.0000 C   0  0  0  0  0  0  0  0  0  0  0  0
   -4.0980   -0.8290    0.0000 C   0  0  0  0  0  0  0  0  0  0  0  0
   -4.2650    0.6620    0.0000 C   0  0  0  0  0  0  0  0  0  0  0  0
   -2.7230   -1.4290    0.0000 O   0  0  0  0  0  0  0  0  0  0  0  0
   -1.5160   -0.5390    0.0000 C   0  0  0  0  0  0  0  0  0  0  0  0
   -0.1410   -1.1390    0.0000 C   0  0  0  0  0  0  0  0  0  0  0  0
    1.0660   -0.2480    0.0000 C   0  0  0  0  0  0  0  0  0  0  0  0
    0.8980    1.2420    0.0000 C   0  0  0  0  0  0  0  0  0  0  0  0
   -0.4760    1.8430    0.0000 C   0  0  0  0  0  0  0  0  0  0  0  0
   -1.6830    0.9520    0.0000 C   0  0  0  0  0  0  0  0  0  0  0  0
    2.4410   -0.8480    0.0000 C   0  0  0  0  0  0  0  0  0  0  0  0
    3.6480    0.0420    0.0000 C   0  0  0  0  0  0  0  0  0  0  0  0
    5.0230   -0.5580    0.0000 C   0  0  0  0  0  0  0  0  0  0  0  0
    6.2300    0.3330    0.0000 C   0  0  0  0  0  0  0  0  0  0  0  0
    7.6040   -0.2670    0.0000 C   0  0  0  0  0  0  0  0  0  0  0  0
    7.7720   -1.7580    0.0000 O   0  0  0  0  0  0  0  0  0  0  0  0
    8.8110    0.6230    0.0000 O   0  0  0  0  0  0  0  0  0  0  0  0
   -7.8860   -2.0100    0.0000 Cl  0  0  0  0  0  0  0  0  0  0  0  0
   -8.2220    0.9710    0.0000 H   0  0  0  0  0  0  0  0  0  0  0  0
   -5.1370   -3.2100    0.0000 H   0  0  0  0  0  0  0  0  0  0  0  0
   -3.5500    1.3380    0.0000 H   0  0  0  0  0  0  0  0  0  0  0  0
    0.0270   -2.6290    0.0000 H   0  0  0  0  0  0  0  0  0  0  0  0
    2.1050    2.1330    0.0000 H   0  0  0  0  0  0  0  0  0  0  0  0
   -0.6440    3.3330    0.0000 H   0  0  0  0  0  0  0  0  0  0  0  0
   -2.5310    1.4530    0.0000 H   0  0  0  0  0  0  0  0  0  0  0  0
    2.6080   -2.3390    0.0000 H   0  0  0  0  0  0  0  0  0  0  0  0
    3.4800    1.5330    0.0000 H   0  0  0  0  0  0  0  0  0  0  0  0
    5.1900   -2.0480    0.0000 H   0  0  0  0  0  0  0  0  0  0  0  0
    6.0620    1.8230    0.0000 H   0  0  0  0  0  0  0  0  0  0  0  0
   10.1860    0.0230    0.0000 H   0  0  0  0  0  0  0  0  0  0  0  0
  1  2  1  0  0  0  0
  2  3  2  0  0  0  0
  2  7  1  0  0  0  0
  3  4  1  0  0  0  0
  3 23  1  0  0  0  0
  4  5  2  0  0  0  0
  4 22  1  0  0  0  0
  5  6  1  0  0  0  0
  5 24  1  0  0  0  0
  6  7  2  0  0  0  0
  6  8  1  0  0  0  0
  7 25  1  0  0  0  0
  8  9  1  0  0  0  0
  9 10  2  0  0  0  0
  9 14  1  0  0  0  0
 10 11  1  0  0  0  0
 10 26  1  0  0  0  0
 11 12  2  0  0  0  0
 11 15  1  0  0  0  0
 12 13  1  0  0  0  0
 12 27  1  0  0  0  0
 13 14  2  0  0  0  0
 13 28  1  0  0  0  0
 14 29  1  0  0  0  0
 15 16  2  0  0  0  0
 15 30  1  0  0  0  0
 16 17  1  0  0  0  0
 16 31  1  0  0  0  0
 17 18  2  0  0  0  0
 17 32  1  0  0  0  0
 18 19  1  0  0  0  0
 18 33  1  0  0  0  0
 19 20  2  0  0  0  0
 19 21  1  0  0  0  0
 21 34  1  0  0  0  0
M  END
$$$$
