2D_structures\o9_MMV1593519_2D.pdb
 OpenBabel02282413353D

 37 39  0  0  1  0  0  0  0  0999 V2000
   -1.9940   -1.5390    0.0000 O   0  0  0  0  0  0  0  0  0  0  0  0
   -0.7370   -0.7200    0.0000 C   0  0  1  0  0  0  0  0  0  0  0  0
    0.6620   -0.1800    0.0000 N   0  0  0  0  0  0  0  0  0  0  0  0
    1.9220   -0.9950    0.0000 C   0  0  0  0  0  0  0  0  0  0  0  0
    2.1590   -2.4770    0.0000 N   0  0  0  0  0  4  0  0  0  0  0  0
    3.5600   -3.0120    0.0000 C   0  0  0  0  0  0  0  0  0  0  0  0
    4.7240   -2.0660    0.0000 N   0  0  0  0  0  0  0  0  0  0  0  0
    4.4870   -0.5850    0.0000 C   0  0  0  0  0  0  0  0  0  0  0  0
    3.0860   -0.0500    0.0000 C   0  0  0  0  0  0  0  0  0  0  0  0
    2.5460    1.3500    0.0000 C   0  0  0  0  0  0  0  0  0  0  0  0
    1.0480    1.2690    0.0000 C   0  0  0  0  0  0  0  0  0  0  0  0
    5.6510    0.3610    0.0000 N   0  0  0  0  0  0  0  0  0  0  0  0
   -1.1280    0.7280    0.0000 C   0  0  1  0  0  0  0  0  0  0  0  0
    0.3530    0.9650    0.0000 O   0  0  0  0  0  0  0  0  0  0  0  0
   -1.2090    2.2260    0.0000 C   0  0  0  0  0  0  0  0  0  0  0  0
   -2.6260    0.8040    0.0000 C   0  0  1  0  0  0  0  0  0  0  0  0
   -3.1610   -0.5970    0.0000 C   0  0  1  0  0  0  0  0  0  0  0  0
   -3.9760   -1.8560    0.0000 C   0  0  0  0  0  0  0  0  0  0  0  0
   -4.7910   -3.1160    0.0000 O   0  0  0  0  0  0  0  0  0  0  0  0
   -4.0750    1.1900    0.0000 O   0  0  0  0  0  0  0  0  0  0  0  0
   -0.0540   -2.0560    0.0000 H   0  0  0  0  0  0  0  0  0  0  0  0
    3.7970   -4.4930    0.0000 H   0  0  0  0  0  0  0  0  0  0  0  0
    3.3610    2.6090    0.0000 H   0  0  0  0  0  0  0  0  0  0  0  0
    0.4120    2.6280    0.0000 H   0  0  0  0  0  0  0  0  0  0  0  0
    7.0520   -0.1740    0.0000 H   0  0  0  0  0  0  0  0  0  0  0  0
    5.4140    1.8420    0.0000 H   0  0  0  0  0  0  0  0  0  0  0  0
    0.8890    2.3660    0.0000 H   0  0  0  0  0  0  0  0  0  0  0  0
   -1.2900    3.7240    0.0000 H   0  0  0  0  0  0  0  0  0  0  0  0
   -2.7050    2.3280    0.0000 H   0  0  0  0  0  0  0  0  0  0  0  0
    0.2250    2.6670    0.0000 H   0  0  0  0  0  0  0  0  0  0  0  0
   -2.5760    2.3030    0.0000 H   0  0  0  0  0  0  0  0  0  0  0  0
   -4.4990    0.0820    0.0000 H   0  0  0  0  0  0  0  0  0  0  0  0
   -5.2350   -1.0410    0.0000 H   0  0  0  0  0  0  0  0  0  0  0  0
   -2.7170   -2.6710    0.0000 H   0  0  0  0  0  0  0  0  0  0  0  0
   -4.1080   -4.4510    0.0000 H   0  0  0  0  0  0  0  0  0  0  0  0
   -4.4660    2.6380    0.0000 H   0  0  0  0  0  0  0  0  0  0  0  0
    5.6437   -2.4173    0.0000 H   0  0  0  0  0  0  0  0  0  0  0  0
  1  2  1  0  0  0  0
  1 17  1  0  0  0  0
  2  3  1  0  0  0  0
  2 13  1  0  0  0  0
  2 21  1  1  0  0  0
  3  4  1  0  0  0  0
  3 11  1  0  0  0  0
  4  5  2  0  0  0  0
  4  9  1  0  0  0  0
  5  6  2  0  0  0  0
  6  7  1  0  0  0  0
  6 22  1  0  0  0  0
  7  8  1  0  0  0  0
  7 37  1  0  0  0  0
  8  9  2  0  0  0  0
  8 12  1  0  0  0  0
  9 10  1  0  0  0  0
 10 11  2  0  0  0  0
 10 23  1  0  0  0  0
 11 24  1  0  0  0  0
 12 25  1  0  0  0  0
 12 26  1  0  0  0  0
 13 14  1  1  0  0  0
 13 15  1  0  0  0  0
 13 16  1  0  0  0  0
 14 27  1  0  0  0  0
 15 28  1  0  0  0  0
 15 29  1  0  0  0  0
 15 30  1  0  0  0  0
 16 17  1  0  0  0  0
 16 20  1  0  0  0  0
 16 31  1  6  0  0  0
 17 18  1  0  0  0  0
 17 32  1  1  0  0  0
 18 19  1  0  0  0  0
 18 33  1  0  0  0  0
 18 34  1  0  0  0  0
 19 35  1  0  0  0  0
 20 36  1  0  0  0  0
M  END
$$$$
