REMARK  Name = ./3D_structures\o10_MMV1230557_3D.pdb
REMARK  3 active torsions:
REMARK  status: ('A' for Active; 'I' for Inactive)
REMARK    1  A    between atoms: C6_7  and  C7_8
REMARK    2  A    between atoms: C7_8  and  N1_9
REMARK    3  A    between atoms: C8_10  and  C9_12
REMARK                            x       y       z     vdW  Elec       q    Type
REMARK                         _______ _______ _______ _____ _____    ______ ____
ROOT
ATOM      1  N1  UNL     1      -0.912  -1.055   1.442  0.00  0.00    +0.000 N 
ATOM      2  C8  UNL     1      -0.169  -0.879   0.262  0.00  0.00    +0.000 C 
ATOM      3  O1  UNL     1      -0.726  -1.148  -0.853  0.00  0.00    +0.000 OA
ATOM      4  H7  UNL     1      -0.471  -0.846   2.359  0.00  0.00    +0.000 HD
ENDROOT
BRANCH   2   5
ATOM      5  C9  UNL     1       1.225  -0.398   0.233  0.00  0.00    +0.000 A 
ATOM      6  C10 UNL     1       1.929  -0.076   1.372  0.00  0.00    +0.000 A 
ATOM      7  N2  UNL     1       3.220   0.366   1.298  0.00  0.00    +0.000 NA
ATOM      8  C11 UNL     1       3.832   0.497   0.130  0.00  0.00    +0.000 A 
ATOM      9  C12 UNL     1       5.133   0.945   0.089  0.00  0.00    +0.000 A 
ATOM     10  C13 UNL     1       5.769   1.080  -1.150  0.00  0.00    +0.000 A 
ATOM     11  C14 UNL     1       5.103   0.769  -2.317  0.00  0.00    +0.000 A 
ATOM     12  C15 UNL     1       3.808   0.327  -2.220  0.00  0.00    +0.000 A 
ATOM     13  C16 UNL     1       3.146   0.181  -1.018  0.00  0.00    +0.000 A 
ATOM     14  N3  UNL     1       1.875  -0.253  -0.937  0.00  0.00    +0.000 NA
ENDBRANCH   2   5
BRANCH   1  15
ATOM     15  C7  UNL     1      -2.276  -1.519   1.445  0.00  0.00    +0.000 C 
BRANCH  15  22
ATOM     16 CL1  UNL     1      -5.066  -2.576   1.400  0.00  0.00    +0.000 Cl
ATOM     17  C1  UNL     1      -4.564  -1.012   0.735  0.00  0.00    +0.000 A 
ATOM     18  C2  UNL     1      -5.545  -0.244   0.171  0.00  0.00    +0.000 A 
ATOM     19  C3  UNL     1      -5.179   0.975  -0.352  0.00  0.00    +0.000 A 
ATOM     20  C4  UNL     1      -3.860   1.382  -0.295  0.00  0.00    +0.000 A 
ATOM     21  C5  UNL     1      -2.861   0.593   0.283  0.00  0.00    +0.000 A 
ATOM     22  C6  UNL     1      -3.243  -0.619   0.798  0.00  0.00    +0.000 A 
ENDBRANCH  15  22
ENDBRANCH   1  15
TORSDOF 3
