REMARK  Name = ./3D_structures\o11_MMV1593540_3D.pdb
REMARK  11 active torsions:
REMARK  status: ('A' for Active; 'I' for Inactive)
REMARK    1  A    between atoms: C1_1  and  O1_2
REMARK    2  A    between atoms: O1_2  and  C2_3
REMARK    3  A    between atoms: C3_4  and  O2_5
REMARK    4  A    between atoms: O2_5  and  C4_6
REMARK    5  A    between atoms: C4_6  and  C5_7
REMARK    6  A    between atoms: C5_7  and  N1_8
REMARK    7  A    between atoms: N1_8  and  C6_9
REMARK    8  A    between atoms: N1_8  and  C10_16
REMARK    9  A    between atoms: C6_9  and  C7_10
REMARK   10  A    between atoms: C7_10  and  N2_11
REMARK   11  A    between atoms: C10_16  and  C11_17
REMARK                            x       y       z     vdW  Elec       q    Type
REMARK                         _______ _______ _______ _____ _____    ______ ____
ROOT
ATOM      1  C2  UNL     1       0.253  -2.423   1.373  0.00  0.00    +0.000 A 
ATOM      2  C3  UNL     1       0.437  -1.584   0.308  0.00  0.00    +0.000 A 
ATOM      3  C17 UNL     1       1.815  -1.449  -0.217  0.00  0.00    +0.000 A 
ATOM      4  C18 UNL     1       1.966  -0.477  -1.177  0.00  0.00    +0.000 A 
ATOM      5  N5  UNL     1       3.248  -0.151  -1.618  0.00  0.00    +0.000 N 
ATOM      6  C19 UNL     1       4.262  -0.803  -1.092  0.00  0.00    +0.000 A 
ATOM      7  C20 UNL     1       4.133  -1.813  -0.128  0.00  0.00    +0.000 A 
ATOM      8  C21 UNL     1       2.803  -2.114   0.315  0.00  0.00    +0.000 A 
ATOM      9  C22 UNL     1       2.628  -2.979   1.383  0.00  0.00    +0.000 A 
ATOM     10  C23 UNL     1       1.360  -3.104   1.880  0.00  0.00    +0.000 A 
ATOM     11  C24 UNL     1       5.623  -0.250  -1.246  0.00  0.00    +0.000 A 
ATOM     12  C25 UNL     1       5.758   0.879  -1.911  0.00  0.00    +0.000 A 
ATOM     13  C26 UNL     1       4.721   1.220  -2.960  0.00  0.00    +0.000 C 
ATOM     14  C27 UNL     1       3.360   0.924  -2.559  0.00  0.00    +0.000 C 
ATOM     15  C28 UNL     1       6.824   1.800  -1.859  0.00  0.00    +0.000 A 
ATOM     16  C29 UNL     1       7.829   1.385  -0.988  0.00  0.00    +0.000 A 
ATOM     17  O3  UNL     1       9.070   1.947  -0.609  0.00  0.00    +0.000 OA
ATOM     18  C30 UNL     1       9.307   1.436   0.734  0.00  0.00    +0.000 C 
ATOM     19  O4  UNL     1       8.915   0.062   0.487  0.00  0.00    +0.000 OA
ATOM     20  C31 UNL     1       7.712   0.185  -0.284  0.00  0.00    +0.000 A 
ATOM     21  C32 UNL     1       6.659  -0.697  -0.340  0.00  0.00    +0.000 A 
ENDROOT
BRANCH   1  23
ATOM     22  C1  UNL     1      -1.100  -3.404   3.108  0.00  0.00    +0.000 C 
ATOM     23  O1  UNL     1      -0.995  -2.574   1.930  0.00  0.00    +0.000 OA
ENDBRANCH   1  23
BRANCH   2  24
ATOM     24  O2  UNL     1      -0.441  -0.817  -0.397  0.00  0.00    +0.000 OA
BRANCH  24  25
ATOM     25  C4  UNL     1      -0.953   0.449  -0.208  0.00  0.00    +0.000 C 
BRANCH  25  26
ATOM     26  C5  UNL     1      -2.062   0.730   0.733  0.00  0.00    +0.000 C 
BRANCH  26  27
ATOM     27  N1  UNL     1      -3.291   0.161   0.362  0.00  0.00    +0.000 NA
BRANCH  27  28
ATOM     28  C6  UNL     1      -3.385  -1.230   0.349  0.00  0.00    +0.000 C 
BRANCH  28  29
ATOM     29  C7  UNL     1      -4.440  -1.966  -0.332  0.00  0.00    +0.000 C 
BRANCH  29  30
ATOM     30  N2  UNL     1      -5.808  -1.872  -0.035  0.00  0.00    +0.000 N 
ATOM     31  C8  UNL     1      -6.427  -2.636   0.929  0.00  0.00    +0.000 C 
ATOM     32  N3  UNL     1      -7.695  -2.344   0.904  0.00  0.00    +0.000 NA
ATOM     33  C9  UNL     1      -7.947  -1.409  -0.066  0.00  0.00    +0.000 C 
ATOM     34  N4  UNL     1      -6.774  -1.166  -0.591  0.00  0.00    +0.000 NA
ENDBRANCH  29  30
ENDBRANCH  28  29
ENDBRANCH  27  28
BRANCH  27  35
ATOM     35  C10 UNL     1      -4.285   0.914  -0.312  0.00  0.00    +0.000 C 
BRANCH  35  36
ATOM     36  C11 UNL     1      -4.627   2.240   0.205  0.00  0.00    +0.000 A 
ATOM     37  C12 UNL     1      -5.813   2.637   0.737  0.00  0.00    +0.000 A 
ATOM     38  F1  UNL     1      -6.719   1.639   1.025  0.00  0.00    +0.000 F 
ATOM     39  C13 UNL     1      -6.175   3.940   1.038  0.00  0.00    +0.000 A 
ATOM     40  C14 UNL     1      -5.299   4.966   0.794  0.00  0.00    +0.000 A 
ATOM     41  F2  UNL     1      -5.584   6.295   1.072  0.00  0.00    +0.000 F 
ATOM     42  C15 UNL     1      -4.085   4.587   0.253  0.00  0.00    +0.000 A 
ATOM     43  C16 UNL     1      -3.671   3.349  -0.058  0.00  0.00    +0.000 A 
ENDBRANCH  35  36
ENDBRANCH  27  35
ENDBRANCH  26  27
ENDBRANCH  25  26
ENDBRANCH  24  25
ENDBRANCH   2  24
TORSDOF 10
