REMARK  Name = ./3D_structures\o12_MMV1593539_3D.pdb
REMARK  4 active torsions:
REMARK  status: ('A' for Active; 'I' for Inactive)
REMARK    1  A    between atoms: N1_2  and  C1_4
REMARK    2  A    between atoms: C5_8  and  C6_9
REMARK    3  A    between atoms: C6_9  and  C7_10
REMARK    4  A    between atoms: C7_10  and  C8_11
REMARK                            x       y       z     vdW  Elec       q    Type
REMARK                         _______ _______ _______ _____ _____    ______ ____
ROOT
ATOM      1  C1  UNL     1       4.957   0.377   0.172  0.00  0.00    +0.000 A 
ATOM      2  C2  UNL     1       3.900   0.845   0.899  0.00  0.00    +0.000 A 
ATOM      3  C3  UNL     1       2.604   0.686   0.469  0.00  0.00    +0.000 A 
ATOM      4  C4  UNL     1       2.285   0.058  -0.700  0.00  0.00    +0.000 A 
ATOM      5  C5  UNL     1       1.110  -0.217  -1.326  0.00  0.00    +0.000 A 
ATOM      6  C16 UNL     1       1.484  -0.893  -2.504  0.00  0.00    +0.000 A 
ATOM      7  N3  UNL     1       2.799  -0.984  -2.523  0.00  0.00    +0.000 N 
ATOM      8  C17 UNL     1       3.361  -0.422  -1.446  0.00  0.00    +0.000 A 
ATOM      9  C18 UNL     1       4.658  -0.269  -1.026  0.00  0.00    +0.000 A 
ATOM     10  H14 UNL     1       3.342  -1.442  -3.289  0.00  0.00    +0.000 HD
ENDROOT
BRANCH   1  12
ATOM     11  O1  UNL     1       6.570   1.156   1.756  0.00  0.00    +0.000 OA
ATOM     12  N1  UNL     1       6.310   0.523   0.585  0.00  0.00    +0.000 N 
ATOM     13  O2  UNL     1       7.242   0.087  -0.098  0.00  0.00    +0.000 OA
ENDBRANCH   1  12
BRANCH   5  14
ATOM     14  C6  UNL     1      -0.299   0.040  -1.019  0.00  0.00    +0.000 C 
BRANCH  14  15
ATOM     15  C7  UNL     1      -0.629   0.757   0.223  0.00  0.00    +0.000 C 
BRANCH  15  16
ATOM     16  C8  UNL     1      -2.124   0.933   0.375  0.00  0.00    +0.000 A 
ATOM     17  C9  UNL     1      -2.821   2.096   0.154  0.00  0.00    +0.000 A 
ATOM     18  N2  UNL     1      -4.134   1.862   0.390  0.00  0.00    +0.000 N 
ATOM     19  C10 UNL     1      -4.303   0.578   0.759  0.00  0.00    +0.000 A 
ATOM     20  C11 UNL     1      -5.386  -0.202   1.112  0.00  0.00    +0.000 A 
ATOM     21  C12 UNL     1      -5.283  -1.530   1.456  0.00  0.00    +0.000 A 
ATOM     22  C13 UNL     1      -4.026  -2.096   1.443  0.00  0.00    +0.000 A 
ATOM     23  C14 UNL     1      -2.915  -1.331   1.090  0.00  0.00    +0.000 A 
ATOM     24  C15 UNL     1      -3.056  -0.005   0.751  0.00  0.00    +0.000 A 
ATOM     25  H8  UNL     1      -4.941   2.536   0.315  0.00  0.00    +0.000 HD
ENDBRANCH  15  16
ENDBRANCH  14  15
ENDBRANCH   5  14
TORSDOF 4
