REMARK  Name = ./3D_structures\o13_MMV1582495_3D.pdb
REMARK  2 active torsions:
REMARK  status: ('A' for Active; 'I' for Inactive)
REMARK    1  A    between atoms: C5_6  and  C6_7
REMARK    2  A    between atoms: C7_8  and  C8_9
REMARK                            x       y       z     vdW  Elec       q    Type
REMARK                         _______ _______ _______ _____ _____    ______ ____
ROOT
ATOM      1  C6  UNL     1       0.615   0.099  -0.371  0.00  0.00    +0.000 C 
ATOM      2  C7  UNL     1      -0.261  -0.662   0.243  0.00  0.00    +0.000 C 
ENDROOT
BRANCH   2   3
ATOM      3  C8  UNL     1      -1.699  -0.357   0.154  0.00  0.00    +0.000 A 
ATOM      4  N1  UNL     1      -2.243   0.664  -0.520  0.00  0.00    +0.000 NA
ATOM      5  C9  UNL     1      -3.573   0.649  -0.393  0.00  0.00    +0.000 A 
ATOM      6  C10 UNL     1      -4.622   1.432  -0.854  0.00  0.00    +0.000 A 
ATOM      7  C11 UNL     1      -5.933   1.145  -0.536  0.00  0.00    +0.000 A 
ATOM      8  C12 UNL     1      -6.180   0.062   0.250  0.00  0.00    +0.000 A 
ATOM      9  C13 UNL     1      -5.158  -0.745   0.731  0.00  0.00    +0.000 A 
ATOM     10  C14 UNL     1      -3.840  -0.440   0.400  0.00  0.00    +0.000 A 
ATOM     11  N2  UNL     1      -2.687  -1.034   0.719  0.00  0.00    +0.000 N 
ATOM     12  H11 UNL     1      -2.540  -1.894   1.313  0.00  0.00    +0.000 HD
ENDBRANCH   2   3
BRANCH   1  18
ATOM     13  C1  UNL     1       6.497   0.868  -0.810  0.00  0.00    +0.000 C 
ATOM     14  O1  UNL     1       6.227  -0.475  -0.457  0.00  0.00    +0.000 OA
ATOM     15  C2  UNL     1       4.846  -0.541  -0.290  0.00  0.00    +0.000 A 
ATOM     16  C3  UNL     1       3.998  -1.392   0.386  0.00  0.00    +0.000 A 
ATOM     17  C4  UNL     1       2.610  -1.219   0.385  0.00  0.00    +0.000 A 
ATOM     18  C5  UNL     1       2.025  -0.181  -0.297  0.00  0.00    +0.000 A 
ATOM     19  C15 UNL     1       2.894   0.679  -0.981  0.00  0.00    +0.000 A 
ATOM     20  C16 UNL     1       4.258   0.505  -0.978  0.00  0.00    +0.000 A 
ATOM     21  O2  UNL     1       5.336   1.191  -1.557  0.00  0.00    +0.000 OA
ENDBRANCH   1  18
TORSDOF 2
