REMARK  Name = ./3D_structures\o14_MMV1582487_3D.pdb
REMARK  16 active torsions:
REMARK  status: ('A' for Active; 'I' for Inactive)
REMARK    1  A    between atoms: C1_1  and  C2_2
REMARK    2  A    between atoms: C2_2  and  C3_3
REMARK    3  A    between atoms: C3_3  and  C4_4
REMARK    4  A    between atoms: C4_4  and  C5_5
REMARK    5  A    between atoms: C5_5  and  C6_6
REMARK    6  A    between atoms: C6_6  and  C7_7
REMARK    7  A    between atoms: C7_7  and  C8_8
REMARK    8  A    between atoms: C8_8  and  C9_9
REMARK    9  A    between atoms: C9_9  and  C10_10
REMARK   10  A    between atoms: C9_9  and  C13_17
REMARK   11  A    between atoms: C10_10  and  P1_11
REMARK   12  A    between atoms: P1_11  and  O2_13
REMARK   13  A    between atoms: P1_11  and  C11_14
REMARK   14  A    between atoms: C11_14  and  C12_15
REMARK   15  A    between atoms: C11_14  and  N1_16
REMARK   16  A    between atoms: C13_17  and  O4_19
REMARK                            x       y       z     vdW  Elec       q    Type
REMARK                         _______ _______ _______ _____ _____    ______ ____
ROOT
ATOM      1  C9  UNL     1      -1.525  -0.880   0.432  0.00  0.00    +0.000 C 
ENDROOT
BRANCH   1   2
ATOM      2  C13 UNL     1      -0.924  -1.669   1.538  0.00  0.00    +0.000 C 
ATOM      3  O3  UNL     1      -0.854  -2.923   1.533  0.00  0.00    +0.000 OA
BRANCH   2   4
ATOM      4  O4  UNL     1      -0.402  -1.018   2.649  0.00  0.00    +0.000 OA
ATOM      5  H28 UNL     1      -0.321  -1.478   3.558  0.00  0.00    +0.000 HD
ENDBRANCH   2   4
ENDBRANCH   1   2
BRANCH   1   6
ATOM      6  C8  UNL     1      -0.479   0.068  -0.159  0.00  0.00    +0.000 C 
BRANCH   6   7
ATOM      7  C7  UNL     1       0.672  -0.807  -0.670  0.00  0.00    +0.000 C 
BRANCH   7   8
ATOM      8  C6  UNL     1       1.709   0.113  -1.254  0.00  0.00    +0.000 C 
BRANCH   8   9
ATOM      9  C5  UNL     1       2.904  -0.591  -1.798  0.00  0.00    +0.000 C 
BRANCH   9  10
ATOM     10  C4  UNL     1       3.650  -1.405  -0.780  0.00  0.00    +0.000 C 
BRANCH  10  11
ATOM     11  C3  UNL     1       4.164  -0.570   0.366  0.00  0.00    +0.000 C 
BRANCH  11  13
ATOM     12  C1  UNL     1       5.538   1.258   1.191  0.00  0.00    +0.000 C 
ATOM     13  C2  UNL     1       5.115   0.513  -0.078  0.00  0.00    +0.000 C 
ENDBRANCH  11  13
ENDBRANCH  10  11
ENDBRANCH   9  10
ENDBRANCH   8   9
ENDBRANCH   7   8
ENDBRANCH   6   7
ENDBRANCH   1   6
BRANCH   1  14
ATOM     14  C10 UNL     1      -2.691  -0.038   0.952  0.00  0.00    +0.000 C 
BRANCH  14  15
ATOM     15  P1  UNL     1      -3.402   0.901  -0.406  0.00  0.00    +0.000 P 
ATOM     16  O1  UNL     1      -3.093   0.188  -1.695  0.00  0.00    +0.000 OA
BRANCH  15  17
ATOM     17  O2  UNL     1      -2.762   2.469  -0.398  0.00  0.00    +0.000 OA
ATOM     18  H21 UNL     1      -3.056   2.922  -1.242  0.00  0.00    +0.000 HD
ENDBRANCH  15  17
BRANCH  15  19
ATOM     19  C11 UNL     1      -5.203   0.992  -0.127  0.00  0.00    +0.000 C 
ATOM     20  C12 UNL     1      -5.430   1.156   1.368  0.00  0.00    +0.000 C 
BRANCH  19  21
ATOM     21  N1  UNL     1      -5.774  -0.286  -0.569  0.00  0.00    +0.000 NA
ATOM     22  H26 UNL     1      -5.217  -0.660  -1.390  0.00  0.00    +0.000 HD
ATOM     23  H27 UNL     1      -5.586  -0.958   0.227  0.00  0.00    +0.000 HD
ENDBRANCH  19  21
ENDBRANCH  15  19
ENDBRANCH  14  15
ENDBRANCH   1  14
TORSDOF 14
