REMARK  Name = ./3D_structures\o15_MMV021759_3D.pdb
REMARK  3 active torsions:
REMARK  status: ('A' for Active; 'I' for Inactive)
REMARK    1  A    between atoms: C2_4  and  N3_5
REMARK    2  A    between atoms: C4_7  and  S1_8
REMARK    3  A    between atoms: S1_8  and  C5_9
REMARK                            x       y       z     vdW  Elec       q    Type
REMARK                         _______ _______ _______ _____ _____    ______ ____
ROOT
ATOM      1  N1  UNL     1       5.684   0.062   1.297  0.00  0.00    +0.000 N 
ATOM      2  C1  UNL     1       4.318   0.056   0.912  0.00  0.00    +0.000 A 
ATOM      3  N2  UNL     1       3.391  -0.542   1.669  0.00  0.00    +0.000 NA
ATOM      4  C2  UNL     1       2.082  -0.585   1.364  0.00  0.00    +0.000 A 
ATOM      5  C3  UNL     1       1.657   0.022   0.200  0.00  0.00    +0.000 A 
ATOM      6  C4  UNL     1       0.315  -0.025  -0.108  0.00  0.00    +0.000 A 
ATOM      7  C11 UNL     1      -0.108   0.580  -1.267  0.00  0.00    +0.000 A 
ATOM      8  C12 UNL     1       0.784   1.214  -2.095  0.00  0.00    +0.000 A 
ATOM      9  C13 UNL     1       2.115   1.236  -1.748  0.00  0.00    +0.000 A 
ATOM     10  C14 UNL     1       2.592   0.644  -0.595  0.00  0.00    +0.000 A 
ATOM     11  N4  UNL     1       3.885   0.647  -0.226  0.00  0.00    +0.000 NA
ATOM     12  H1  UNL     1       5.947  -0.044   2.302  0.00  0.00    +0.000 HD
ATOM     13  H2  UNL     1       6.461   0.168   0.619  0.00  0.00    +0.000 HD
ENDROOT
BRANCH   4  14
ATOM     14  N3  UNL     1       1.210  -1.255   2.261  0.00  0.00    +0.000 N 
ATOM     15  H3  UNL     1       1.000  -2.270   2.122  0.00  0.00    +0.000 HD
ATOM     16  H4  UNL     1       0.760  -0.767   3.069  0.00  0.00    +0.000 HD
ENDBRANCH   4  14
BRANCH   6  17
ATOM     17  S1  UNL     1      -0.851  -0.859   0.984  0.00  0.00    +0.000 S 
BRANCH  17  18
ATOM     18  C5  UNL     1      -2.478  -0.728   0.288  0.00  0.00    +0.000 A 
ATOM     19  C6  UNL     1      -3.290   0.323   0.596  0.00  0.00    +0.000 A 
ATOM     20  C7  UNL     1      -4.567   0.443   0.060  0.00  0.00    +0.000 A 
ATOM     21  C8  UNL     1      -4.992  -0.533  -0.793  0.00  0.00    +0.000 A 
ATOM     22  C9  UNL     1      -4.202  -1.613  -1.130  0.00  0.00    +0.000 A 
ATOM     23  C10 UNL     1      -2.938  -1.711  -0.587  0.00  0.00    +0.000 A 
ENDBRANCH  17  18
ENDBRANCH   6  17
TORSDOF 3
