REMARK  Name = ./3D_structures\o16_MMV1581555_3D.pdb
REMARK  3 active torsions:
REMARK  status: ('A' for Active; 'I' for Inactive)
REMARK    1  A    between atoms: N1_1  and  C1_2
REMARK    2  A    between atoms: C5_6  and  C7_8
REMARK    3  A    between atoms: N5_14  and  C10_15
REMARK                            x       y       z     vdW  Elec       q    Type
REMARK                         _______ _______ _______ _____ _____    ______ ____
ROOT
ATOM      1  C7  UNL     1      -2.141   0.337  -0.209  0.00  0.00    +0.000 C 
ATOM      2  N2  UNL     1      -2.310   1.514   0.406  0.00  0.00    +0.000 NA
ATOM      3  C8  UNL     1      -1.284   2.407   0.528  0.00  0.00    +0.000 C 
ATOM      4  N3  UNL     1      -1.459   3.655   1.178  0.00  0.00    +0.000 N 
ATOM      5  N4  UNL     1      -0.061   2.107   0.020  0.00  0.00    +0.000 NA
ATOM      6  C9  UNL     1       0.110   0.923  -0.599  0.00  0.00    +0.000 C 
ATOM      7  N5  UNL     1       1.366   0.548  -1.153  0.00  0.00    +0.000 N 
ATOM      8  N6  UNL     1      -0.924   0.058  -0.706  0.00  0.00    +0.000 NA
ATOM      9  H7  UNL     1      -0.968   4.531   0.878  0.00  0.00    +0.000 HD
ATOM     10  H8  UNL     1      -2.115   3.671   1.991  0.00  0.00    +0.000 HD
ATOM     11  H9  UNL     1       1.482  -0.371  -1.628  0.00  0.00    +0.000 HD
ENDROOT
BRANCH   7  12
ATOM     12  C10 UNL     1       2.514   1.438  -1.069  0.00  0.00    +0.000 C 
ATOM     13  C11 UNL     1       3.710   0.790  -1.737  0.00  0.00    +0.000 C 
ATOM     14  C12 UNL     1       4.208  -0.097  -0.613  0.00  0.00    +0.000 A 
ATOM     15  C13 UNL     1       5.025  -1.220  -0.661  0.00  0.00    +0.000 A 
ATOM     16  C14 UNL     1       5.332  -1.860   0.511  0.00  0.00    +0.000 A 
ATOM     17  C15 UNL     1       4.867  -1.439   1.737  0.00  0.00    +0.000 A 
ATOM     18  C16 UNL     1       4.061  -0.329   1.783  0.00  0.00    +0.000 A 
ATOM     19  C17 UNL     1       3.736   0.338   0.594  0.00  0.00    +0.000 A 
ATOM     20  C18 UNL     1       2.885   1.562   0.386  0.00  0.00    +0.000 C 
ENDBRANCH   7  12
BRANCH   1  25
ATOM     21  C1  UNL     1      -5.541  -1.272   0.034  0.00  0.00    +0.000 A 
ATOM     22  C2  UNL     1      -5.287  -2.483  -0.622  0.00  0.00    +0.000 A 
ATOM     23  C3  UNL     1      -4.037  -2.767  -1.131  0.00  0.00    +0.000 A 
ATOM     24  C4  UNL     1      -3.034  -1.833  -0.983  0.00  0.00    +0.000 A 
ATOM     25  C5  UNL     1      -3.228  -0.631  -0.348  0.00  0.00    +0.000 A 
ATOM     26  C6  UNL     1      -4.492  -0.383   0.147  0.00  0.00    +0.000 A 
BRANCH  21  27
ATOM     27  N1  UNL     1      -6.833  -0.973   0.563  0.00  0.00    +0.000 N 
ATOM     28  H1  UNL     1      -7.220  -1.441   1.408  0.00  0.00    +0.000 HD
ATOM     29  H2  UNL     1      -7.394  -0.245   0.057  0.00  0.00    +0.000 HD
ENDBRANCH  21  27
ENDBRANCH   1  25
TORSDOF 3
