REMARK  Name = ./3D_structures\o17_MMV1581547_3D.pdb
REMARK  9 active torsions:
REMARK  status: ('A' for Active; 'I' for Inactive)
REMARK    1  A    between atoms: C1_1  and  C2_2
REMARK    2  A    between atoms: C2_2  and  C3_3
REMARK    3  A    between atoms: C2_2  and  C4_4
REMARK    4  A    between atoms: C2_2  and  O1_5
REMARK    5  A    between atoms: O1_5  and  C5_6
REMARK    6  A    between atoms: N1_8  and  C6_9
REMARK    7  A    between atoms: C6_9  and  C7_10
REMARK    8  A    between atoms: C10_13  and  C13_16
REMARK    9  A    between atoms: N2_18  and  C14_19
REMARK                            x       y       z     vdW  Elec       q    Type
REMARK                         _______ _______ _______ _____ _____    ______ ____
ROOT
ATOM      1  C7  UNL     1      -0.452   0.926  -1.810  0.00  0.00    +0.000 A 
ATOM      2  C8  UNL     1      -0.240  -0.413  -2.044  0.00  0.00    +0.000 A 
ATOM      3  C9  UNL     1       0.896  -1.078  -1.614  0.00  0.00    +0.000 A 
ATOM      4  C10 UNL     1       1.869  -0.392  -0.922  0.00  0.00    +0.000 A 
ATOM      5  C11 UNL     1       1.688   0.930  -0.677  0.00  0.00    +0.000 A 
ATOM      6  C12 UNL     1       0.555   1.589  -1.106  0.00  0.00    +0.000 A 
ENDROOT
BRANCH   4   7
ATOM      7  C13 UNL     1       3.049  -1.094  -0.477  0.00  0.00    +0.000 C 
ATOM      8  O3  UNL     1       3.169  -2.359  -0.689  0.00  0.00    +0.000 OA
ATOM      9  N2  UNL     1       4.129  -0.471   0.202  0.00  0.00    +0.000 N 
ATOM     10  H17 UNL     1       4.080   0.549   0.395  0.00  0.00    +0.000 HD
BRANCH   9  11
ATOM     11  C14 UNL     1       5.290  -1.246   0.622  0.00  0.00    +0.000 C 
ATOM     12  C15 UNL     1       6.526  -0.586   0.044  0.00  0.00    +0.000 C 
ATOM     13  C16 UNL     1       6.685   0.603   0.967  0.00  0.00    +0.000 C 
ATOM     14  O4  UNL     1       6.345   0.059   2.227  0.00  0.00    +0.000 OA
ATOM     15  C17 UNL     1       5.481  -1.014   2.073  0.00  0.00    +0.000 C 
ATOM     16  O5  UNL     1       4.959  -1.665   2.999  0.00  0.00    +0.000 OA
ENDBRANCH   9  11
ENDBRANCH   4   7
BRANCH   1  17
ATOM     17  C6  UNL     1      -1.672   1.633  -2.269  0.00  0.00    +0.000 C 
BRANCH  17  20
ATOM     18  C5  UNL     1      -3.338   0.666  -0.639  0.00  0.00    +0.000 C 
ATOM     19  O2  UNL     1      -3.274  -0.457  -1.196  0.00  0.00    +0.000 OA
ATOM     20  N1  UNL     1      -2.571   1.743  -1.121  0.00  0.00    +0.000 N 
ATOM     21  H10 UNL     1      -2.662   2.676  -0.613  0.00  0.00    +0.000 HD
BRANCH  18  22
ATOM     22  O1  UNL     1      -4.166   0.887   0.471  0.00  0.00    +0.000 OA
BRANCH  22  24
ATOM     23  C1  UNL     1      -5.732   0.297   2.140  0.00  0.00    +0.000 C 
ATOM     24  C2  UNL     1      -4.935  -0.199   0.951  0.00  0.00    +0.000 C 
ATOM     25  C3  UNL     1      -5.936  -0.638  -0.095  0.00  0.00    +0.000 C 
ATOM     26  C4  UNL     1      -4.007  -1.298   1.369  0.00  0.00    +0.000 C 
ENDBRANCH  22  24
ENDBRANCH  18  22
ENDBRANCH  17  20
ENDBRANCH   1  17
TORSDOF 6
