REMARK  Name = ./3D_structures\o18_MMV687800_3D.pdb
REMARK  6 active torsions:
REMARK  status: ('A' for Active; 'I' for Inactive)
REMARK    1  A    between atoms: C1_1  and  C2_2
REMARK    2  A    between atoms: C2_2  and  C3_3
REMARK    3  A    between atoms: C2_2  and  N1_4
REMARK    4  A    between atoms: N2_8  and  C7_9
REMARK    5  A    between atoms: C21_25  and  N4_26
REMARK    6  A    between atoms: N4_26  and  C22_27
REMARK                            x       y       z     vdW  Elec       q    Type
REMARK                         _______ _______ _______ _____ _____    ______ ____
ROOT
ATOM      1  N1  UNL     1       1.382  -2.166  -0.681  0.00  0.00    +0.000 NA
ATOM      2  C4  UNL     1       1.009  -0.983  -0.301  0.00  0.00    +0.000 A 
ATOM      3  C5  UNL     1      -0.305  -0.703  -0.205  0.00  0.00    +0.000 A 
ATOM      4  C6  UNL     1      -0.731   0.539   0.195  0.00  0.00    +0.000 A 
ATOM      5  N2  UNL     1      -2.055   0.835   0.296  0.00  0.00    +0.000 N 
ATOM      6  C13 UNL     1      -2.476   2.063   0.691  0.00  0.00    +0.000 A 
ATOM      7  C14 UNL     1      -3.836   2.297   0.773  0.00  0.00    +0.000 A 
ATOM      8  C15 UNL     1      -4.279   3.529   1.169  0.00  0.00    +0.000 A 
ATOM      9  C16 UNL     1      -3.361   4.520   1.482  0.00  0.00    +0.000 A 
ATOM     10  C17 UNL     1      -2.012   4.255   1.391  0.00  0.00    +0.000 A 
ATOM     11  C18 UNL     1      -1.518   3.008   0.989  0.00  0.00    +0.000 A 
ATOM     12  N3  UNL     1      -0.194   2.790   0.913  0.00  0.00    +0.000 NA
ATOM     13  C19 UNL     1       0.237   1.562   0.517  0.00  0.00    +0.000 A 
ATOM     14  C20 UNL     1       1.569   1.254   0.413  0.00  0.00    +0.000 A 
ATOM     15  C21 UNL     1       1.966  -0.006   0.008  0.00  0.00    +0.000 A 
ENDROOT
BRANCH   5  16
ATOM     16  C7  UNL     1      -2.980  -0.186  -0.027  0.00  0.00    +0.000 A 
ATOM     17  C8  UNL     1      -3.261  -0.530  -1.323  0.00  0.00    +0.000 A 
ATOM     18  C9  UNL     1      -4.154  -1.518  -1.687  0.00  0.00    +0.000 A 
ATOM     19  C10 UNL     1      -4.807  -2.205  -0.680  0.00  0.00    +0.000 A 
ATOM     20 CL1  UNL     1      -5.938  -3.456  -1.151  0.00  0.00    +0.000 Cl
ATOM     21  C11 UNL     1      -4.557  -1.894   0.636  0.00  0.00    +0.000 A 
ATOM     22  C12 UNL     1      -3.652  -0.895   0.934  0.00  0.00    +0.000 A 
ENDBRANCH   5  16
BRANCH   1  24
ATOM     23  C1  UNL     1      -0.345  -2.864  -2.291  0.00  0.00    +0.000 C 
ATOM     24  C2  UNL     1       0.370  -3.133  -0.986  0.00  0.00    +0.000 C 
ATOM     25  C3  UNL     1       1.102  -4.476  -1.141  0.00  0.00    +0.000 C 
ENDBRANCH   1  24
BRANCH  15  26
ATOM     26  N4  UNL     1       3.324  -0.332  -0.141  0.00  0.00    +0.000 N 
ATOM     27  H18 UNL     1       3.545  -1.256  -0.644  0.00  0.00    +0.000 HD
BRANCH  26  28
ATOM     28  C22 UNL     1       4.438   0.422   0.294  0.00  0.00    +0.000 A 
ATOM     29  C23 UNL     1       4.417   1.096   1.488  0.00  0.00    +0.000 A 
ATOM     30  C24 UNL     1       5.521   1.858   1.871  0.00  0.00    +0.000 A 
ATOM     31  C25 UNL     1       6.631   1.937   1.062  0.00  0.00    +0.000 A 
ATOM     32 CL2  UNL     1       8.014   2.902   1.563  0.00  0.00    +0.000 Cl
ATOM     33  C26 UNL     1       6.660   1.260  -0.140  0.00  0.00    +0.000 A 
ATOM     34  C27 UNL     1       5.577   0.523  -0.501  0.00  0.00    +0.000 A 
ENDBRANCH  26  28
ENDBRANCH  15  26
TORSDOF 4
