REMARK  Name = ./3D_structures\o19_MMV1580848_3D.pdb
REMARK  6 active torsions:
REMARK  status: ('A' for Active; 'I' for Inactive)
REMARK    1  A    between atoms: C1_2  and  C2_4
REMARK    2  A    between atoms: C7_10  and  S1_22
REMARK    3  A    between atoms: C10_13  and  N3_14
REMARK    4  A    between atoms: N3_14  and  C11_15
REMARK    5  A    between atoms: C14_18  and  O2_19
REMARK    6  A    between atoms: S1_22  and  C17_25
REMARK                            x       y       z     vdW  Elec       q    Type
REMARK                         _______ _______ _______ _____ _____    ______ ____
ROOT
ATOM      1  C2  UNL     1      -1.979  -2.524   0.408  0.00  0.00    +0.000 A 
ATOM      2  C3  UNL     1      -1.605  -3.566  -0.409  0.00  0.00    +0.000 A 
ATOM      3  N2  UNL     1      -0.541  -3.488  -1.228  0.00  0.00    +0.000 NA
ATOM      4  C4  UNL     1       0.206  -2.397  -1.289  0.00  0.00    +0.000 A 
ATOM      5  C5  UNL     1       1.293  -2.345  -2.139  0.00  0.00    +0.000 A 
ATOM      6  C6  UNL     1       2.030  -1.179  -2.155  0.00  0.00    +0.000 A 
ATOM      7  C7  UNL     1       1.714  -0.093  -1.363  0.00  0.00    +0.000 A 
ATOM      8  C8  UNL     1       0.619  -0.186  -0.527  0.00  0.00    +0.000 A 
ATOM      9  C9  UNL     1      -0.145  -1.325  -0.476  0.00  0.00    +0.000 A 
ATOM     10  C10 UNL     1      -1.229  -1.376   0.372  0.00  0.00    +0.000 A 
ENDROOT
BRANCH   1  12
ATOM     11  N1  UNL     1      -3.898  -3.826   1.309  0.00  0.00    +0.000 N 
ATOM     12  C1  UNL     1      -3.146  -2.633   1.294  0.00  0.00    +0.000 C 
ATOM     13  O1  UNL     1      -3.494  -1.689   2.042  0.00  0.00    +0.000 OA
ATOM     14  H1  UNL     1      -3.946  -4.405   2.162  0.00  0.00    +0.000 HD
ATOM     15  H2  UNL     1      -4.401  -4.114   0.455  0.00  0.00    +0.000 HD
ENDBRANCH   1  12
BRANCH   7  16
ATOM     16  S1  UNL     1       2.647   1.390  -1.380  0.00  0.00    +0.000 S 
ATOM     17  O3  UNL     1       1.762   2.581  -1.099  0.00  0.00    +0.000 OA
ATOM     18  O4  UNL     1       3.291   1.512  -2.733  0.00  0.00    +0.000 OA
BRANCH  16  19
ATOM     19  C17 UNL     1       3.926   1.301  -0.191  0.00  0.00    +0.000 A 
ATOM     20  C18 UNL     1       3.682   1.740   1.095  0.00  0.00    +0.000 A 
ATOM     21  C19 UNL     1       4.679   1.674   2.036  0.00  0.00    +0.000 A 
ATOM     22  C20 UNL     1       5.915   1.171   1.687  0.00  0.00    +0.000 A 
ATOM     23  C21 UNL     1       6.143   0.737   0.401  0.00  0.00    +0.000 A 
ATOM     24  C22 UNL     1       5.154   0.794  -0.561  0.00  0.00    +0.000 A 
ENDBRANCH  16  19
ENDBRANCH   7  16
BRANCH  10  25
ATOM     25  N3  UNL     1      -1.602  -0.293   1.210  0.00  0.00    +0.000 N 
ATOM     26  H7  UNL     1      -1.177  -0.275   2.161  0.00  0.00    +0.000 HD
BRANCH  25  27
ATOM     27  C11 UNL     1      -2.497   0.722   0.806  0.00  0.00    +0.000 A 
ATOM     28  C12 UNL     1      -2.815   1.740   1.664  0.00  0.00    +0.000 A 
ATOM     29  C13 UNL     1      -3.677   2.762   1.343  0.00  0.00    +0.000 A 
ATOM     30  C14 UNL     1      -4.256   2.770   0.094  0.00  0.00    +0.000 A 
ATOM     31  C15 UNL     1      -3.945   1.749  -0.786  0.00  0.00    +0.000 A 
ATOM     32  C16 UNL     1      -3.078   0.733  -0.444  0.00  0.00    +0.000 A 
BRANCH  30  33
ATOM     33  O2  UNL     1      -5.146   3.796  -0.283  0.00  0.00    +0.000 OA
ATOM     34  H10 UNL     1      -6.123   3.620  -0.076  0.00  0.00    +0.000 HD
ENDBRANCH  30  33
ENDBRANCH  25  27
ENDBRANCH  10  25
TORSDOF 6
