REMARK  Name = ./3D_structures\o1_MMV1483032_3D.pdb
REMARK  5 active torsions:
REMARK  status: ('A' for Active; 'I' for Inactive)
REMARK    1  A    between atoms: C1_1  and  O1_2
REMARK    2  A    between atoms: O1_2  and  C2_3
REMARK    3  A    between atoms: C5_6  and  N1_7
REMARK    4  A    between atoms: C6_8  and  C7_10
REMARK    5  A    between atoms: C7_10  and  C8_11
REMARK                            x       y       z     vdW  Elec       q    Type
REMARK                         _______ _______ _______ _____ _____    ______ ____
ROOT
ATOM      1  N1  UNL     1       0.006   0.389   1.054  0.00  0.00    +0.000 N 
ATOM      2  C6  UNL     1       0.849  -0.673   0.715  0.00  0.00    +0.000 C 
ATOM      3  O2  UNL     1       0.493  -1.734   0.154  0.00  0.00    +0.000 OA
ATOM      4  H6  UNL     1       0.466   1.224   1.526  0.00  0.00    +0.000 HD
ENDROOT
BRANCH   1   8
ATOM      5  C2  UNL     1      -4.133   0.593   0.326  0.00  0.00    +0.000 A 
ATOM      6  C3  UNL     1      -3.482  -0.592   0.165  0.00  0.00    +0.000 A 
ATOM      7  C4  UNL     1      -2.093  -0.691   0.408  0.00  0.00    +0.000 A 
ATOM      8  C5  UNL     1      -1.365   0.388   0.807  0.00  0.00    +0.000 A 
ATOM      9  C12 UNL     1      -2.083   1.587   0.958  0.00  0.00    +0.000 A 
ATOM     10  C13 UNL     1      -3.429   1.696   0.727  0.00  0.00    +0.000 A 
BRANCH   5  12
ATOM     11  C1  UNL     1      -6.150   1.914   0.258  0.00  0.00    +0.000 C 
ATOM     12  O1  UNL     1      -5.482   0.693   0.092  0.00  0.00    +0.000 OA
ENDBRANCH   5  12
ENDBRANCH   1   8
BRANCH   2  13
ATOM     13  C7  UNL     1       2.308  -0.583   1.026  0.00  0.00    +0.000 C 
BRANCH  13  14
ATOM     14  C8  UNL     1       3.084  -1.784   0.610  0.00  0.00    +0.000 C 
ATOM     15  S1  UNL     1       4.831  -1.466   1.081  0.00  0.00    +0.000 S 
ATOM     16  C9  UNL     1       5.280  -0.819  -0.547  0.00  0.00    +0.000 C 
ATOM     17  N2  UNL     1       6.238  -0.126  -1.181  0.00  0.00    +0.000 NA
ATOM     18  C10 UNL     1       5.863  -0.027  -2.448  0.00  0.00    +0.000 C 
ATOM     19  N3  UNL     1       4.702  -0.653  -2.558  0.00  0.00    +0.000 NA
ATOM     20  N4  UNL     1       4.310  -1.163  -1.371  0.00  0.00    +0.000 N 
ATOM     21  C11 UNL     1       3.249  -1.885  -0.856  0.00  0.00    +0.000 C 
ATOM     22  O3  UNL     1       2.442  -2.599  -1.526  0.00  0.00    +0.000 OA
ENDBRANCH  13  14
ENDBRANCH   2  13
TORSDOF 4
