REMARK  Name = ./3D_structures\o20_MMV1580842_3D.pdb
REMARK  8 active torsions:
REMARK  status: ('A' for Active; 'I' for Inactive)
REMARK    1  A    between atoms: C4_6  and  C5_7
REMARK    2  A    between atoms: N3_13  and  C10_14
REMARK    3  A    between atoms: C10_14  and  C11_15
REMARK    4  A    between atoms: C14_18  and  C15_19
REMARK    5  A    between atoms: C15_19  and  N4_20
REMARK    6  A    between atoms: N4_20  and  C16_21
REMARK    7  A    between atoms: C16_21  and  C17_22
REMARK    8  A    between atoms: C17_22  and  C18_23
REMARK                            x       y       z     vdW  Elec       q    Type
REMARK                         _______ _______ _______ _____ _____    ______ ____
ROOT
ATOM      1 CL1  UNL     1      -5.499  -6.077   0.651  0.00  0.00    +0.000 Cl
ATOM      2  C1  UNL     1      -4.696  -4.621   0.082  0.00  0.00    +0.000 A 
ATOM      3  C2  UNL     1      -5.159  -3.387   0.482  0.00  0.00    +0.000 A 
ATOM      4  C3  UNL     1      -4.554  -2.211   0.055  0.00  0.00    +0.000 A 
ATOM      5  N1  UNL     1      -4.770  -0.914   0.256  0.00  0.00    +0.000 NA
ATOM      6  C4  UNL     1      -3.867  -0.185  -0.421  0.00  0.00    +0.000 A 
ATOM      7  N3  UNL     1      -3.055  -1.005  -1.069  0.00  0.00    +0.000 N 
ATOM      8  C23 UNL     1      -3.465  -2.276  -0.789  0.00  0.00    +0.000 A 
ATOM      9  C24 UNL     1      -3.016  -3.534  -1.180  0.00  0.00    +0.000 A 
ATOM     10  C25 UNL     1      -3.612  -4.712  -0.760  0.00  0.00    +0.000 A 
ATOM     11 CL2  UNL     1      -3.008  -6.281  -1.281  0.00  0.00    +0.000 Cl
ENDROOT
BRANCH   6  12
ATOM     12  C5  UNL     1      -3.852   1.287  -0.406  0.00  0.00    +0.000 C 
ATOM     13  C6  UNL     1      -3.364   1.694   0.988  0.00  0.00    +0.000 C 
ATOM     14  C7  UNL     1      -3.491   3.183   1.084  0.00  0.00    +0.000 C 
ATOM     15  N2  UNL     1      -4.889   3.514   1.247  0.00  0.00    +0.000 NA
ATOM     16  C8  UNL     1      -5.761   2.497   0.702  0.00  0.00    +0.000 C 
ATOM     17  C9  UNL     1      -5.226   1.889  -0.566  0.00  0.00    +0.000 C 
ATOM     18  H7  UNL     1      -5.080   3.535   2.286  0.00  0.00    +0.000 HD
ENDBRANCH   6  12
BRANCH   7  19
ATOM     19  C10 UNL     1      -1.931  -0.712  -1.920  0.00  0.00    +0.000 C 
BRANCH  19  20
ATOM     20  C11 UNL     1      -0.636  -0.607  -1.207  0.00  0.00    +0.000 A 
ATOM     21  C12 UNL     1      -0.214   0.651  -0.792  0.00  0.00    +0.000 A 
ATOM     22  C13 UNL     1       0.973   0.859  -0.120  0.00  0.00    +0.000 A 
ATOM     23  C14 UNL     1       1.784  -0.228   0.157  0.00  0.00    +0.000 A 
ATOM     24  C21 UNL     1       1.371  -1.476  -0.252  0.00  0.00    +0.000 A 
ATOM     25  C22 UNL     1       0.175  -1.693  -0.930  0.00  0.00    +0.000 A 
BRANCH  23  26
ATOM     26  C15 UNL     1       3.060  -0.006   0.877  0.00  0.00    +0.000 C 
BRANCH  26  27
ATOM     27  N4  UNL     1       4.115   0.184  -0.106  0.00  0.00    +0.000 NA
ATOM     28  H18 UNL     1       4.193  -0.637  -0.746  0.00  0.00    +0.000 HD
BRANCH  27  29
ATOM     29  C16 UNL     1       5.354   0.401   0.627  0.00  0.00    +0.000 C 
BRANCH  29  30
ATOM     30  C17 UNL     1       6.487   0.600  -0.342  0.00  0.00    +0.000 C 
BRANCH  30  31
ATOM     31  C18 UNL     1       7.735   0.819   0.416  0.00  0.00    +0.000 A 
ATOM     32  C19 UNL     1       7.899   0.850   1.768  0.00  0.00    +0.000 A 
ATOM     33  N5  UNL     1       9.188   1.076   2.054  0.00  0.00    +0.000 NA
ATOM     34  C20 UNL     1       9.838   1.187   0.887  0.00  0.00    +0.000 A 
ATOM     35  N6  UNL     1       8.972   1.034  -0.117  0.00  0.00    +0.000 N 
ATOM     36  H25 UNL     1       9.132   1.060  -1.130  0.00  0.00    +0.000 HD
ENDBRANCH  30  31
ENDBRANCH  29  30
ENDBRANCH  27  29
ENDBRANCH  26  27
ENDBRANCH  23  26
ENDBRANCH  19  20
ENDBRANCH   7  19
TORSDOF 8
