REMARK  Name = ./3D_structures\o21_MMV1580840_3D.pdb
REMARK  8 active torsions:
REMARK  status: ('A' for Active; 'I' for Inactive)
REMARK    1  A    between atoms: C1_2  and  C2_5
REMARK    2  A    between atoms: C4_7  and  N1_8
REMARK    3  A    between atoms: C5_9  and  C6_11
REMARK    4  A    between atoms: C6_11  and  C7_12
REMARK    5  A    between atoms: C6_11  and  C9_15
REMARK    6  A    between atoms: C7_12  and  C8_13
REMARK    7  A    between atoms: N2_17  and  C10_18
REMARK    8  A    between atoms: C14_23  and  C16_25
REMARK                            x       y       z     vdW  Elec       q    Type
REMARK                         _______ _______ _______ _____ _____    ______ ____
ROOT
ATOM      1  C6  UNL     1      -0.165  -1.847   0.211  0.00  0.00    +0.000 C 
ENDROOT
BRANCH   1   3
ATOM      2  N1  UNL     1       1.977  -0.521  -0.123  0.00  0.00    +0.000 N 
ATOM      3  C5  UNL     1       1.281  -1.588   0.486  0.00  0.00    +0.000 C 
ATOM      4  O1  UNL     1       1.864  -2.342   1.274  0.00  0.00    +0.000 OA
ATOM      5  H2  UNL     1       1.365   0.058  -0.784  0.00  0.00    +0.000 HD
BRANCH   2   8
ATOM      6  C2  UNL     1       5.090   1.430  -0.491  0.00  0.00    +0.000 A 
ATOM      7  C3  UNL     1       3.799   0.979  -0.576  0.00  0.00    +0.000 A 
ATOM      8  C4  UNL     1       3.337  -0.181   0.062  0.00  0.00    +0.000 A 
ATOM      9  C17 UNL     1       4.260  -0.865   0.796  0.00  0.00    +0.000 A 
ATOM     10  C18 UNL     1       5.572  -0.456   0.915  0.00  0.00    +0.000 A 
ATOM     11  C19 UNL     1       5.968   0.688   0.269  0.00  0.00    +0.000 A 
ATOM     12 CL3  UNL     1       7.655   1.192   0.437  0.00  0.00    +0.000 Cl
BRANCH   6  14
ATOM     13  F1  UNL     1       4.634   3.300  -1.877  0.00  0.00    +0.000 F 
ATOM     14  C1  UNL     1       5.584   2.646  -1.155  0.00  0.00    +0.000 C 
ATOM     15  F2  UNL     1       6.688   2.299  -1.936  0.00  0.00    +0.000 F 
ATOM     16  F3  UNL     1       6.061   3.514  -0.177  0.00  0.00    +0.000 F 
ENDBRANCH   6  14
ENDBRANCH   2   8
ENDBRANCH   1   3
BRANCH   1  17
ATOM     17  C9  UNL     1      -0.990  -0.653   0.511  0.00  0.00    +0.000 C 
ATOM     18  O2  UNL     1      -0.430   0.374   0.932  0.00  0.00    +0.000 OA
ATOM     19  N2  UNL     1      -2.382  -0.719   0.308  0.00  0.00    +0.000 N 
ATOM     20  H8  UNL     1      -2.791  -1.638  -0.057  0.00  0.00    +0.000 HD
BRANCH  19  21
ATOM     21  C10 UNL     1      -3.308   0.332   0.541  0.00  0.00    +0.000 A 
ATOM     22  C11 UNL     1      -2.977   1.637   0.806  0.00  0.00    +0.000 A 
ATOM     23  C12 UNL     1      -3.966   2.601   1.040  0.00  0.00    +0.000 A 
ATOM     24  C13 UNL     1      -5.298   2.276   1.013  0.00  0.00    +0.000 A 
ATOM     25 CL2  UNL     1      -6.505   3.526   1.314  0.00  0.00    +0.000 Cl
ATOM     26  C14 UNL     1      -5.654   0.978   0.750  0.00  0.00    +0.000 A 
ATOM     27  C15 UNL     1      -4.673   0.050   0.523  0.00  0.00    +0.000 A 
BRANCH  26  28
ATOM     28  C16 UNL     1      -7.095   0.635   0.723  0.00  0.00    +0.000 C 
ATOM     29  F4  UNL     1      -7.605   0.938   1.986  0.00  0.00    +0.000 F 
ATOM     30  F5  UNL     1      -7.249  -0.728   0.462  0.00  0.00    +0.000 F 
ATOM     31  F6  UNL     1      -7.772   1.336  -0.261  0.00  0.00    +0.000 F 
ENDBRANCH  26  28
ENDBRANCH  19  21
ENDBRANCH   1  17
BRANCH   1  32
ATOM     32  C7  UNL     1      -0.299  -2.135  -1.260  0.00  0.00    +0.000 C 
BRANCH  32  33
ATOM     33  C8  UNL     1       0.476  -3.329  -1.732  0.00  0.00    +0.000 C 
ATOM     34 CL1  UNL     1       2.211  -3.109  -1.432  0.00  0.00    +0.000 Cl
ENDBRANCH  32  33
ENDBRANCH   1  32
TORSDOF 8
