REMARK  Name = ./3D_structures\o22_MMV046261_3D.pdb
REMARK  1 active torsions:
REMARK  status: ('A' for Active; 'I' for Inactive)
REMARK    1  A    between atoms: C2_5  and  C3_7
REMARK                            x       y       z     vdW  Elec       q    Type
REMARK                         _______ _______ _______ _____ _____    ______ ____
ROOT
ATOM      1  N1  UNL     1       4.688   0.702  -0.547  0.00  0.00    +0.000 N 
ATOM      2  C1  UNL     1       3.365   0.114  -0.551  0.00  0.00    +0.000 A 
ATOM      3  N2  UNL     1       2.825  -0.893  -0.864  0.00  0.00    +0.000 NA
ATOM      4  N3  UNL     1       1.546  -1.109  -0.724  0.00  0.00    +0.000 NA
ATOM      5  C2  UNL     1       0.773  -0.388  -0.294  0.00  0.00    +0.000 A 
ATOM      6  S1  UNL     1       1.905   1.076   0.100  0.00  0.00    +0.000 S 
ATOM      7  H1  UNL     1       5.286   0.508  -1.352  0.00  0.00    +0.000 HD
ATOM      8  H2  UNL     1       5.042   1.296   0.219  0.00  0.00    +0.000 HD
ENDROOT
BRANCH   5   9
ATOM      9  C3  UNL     1      -0.688  -0.233   0.029  0.00  0.00    +0.000 A 
ATOM     10  C4  UNL     1      -1.189   0.901   0.579  0.00  0.00    +0.000 A 
ATOM     11  C5  UNL     1      -2.553   1.008   0.866  0.00  0.00    +0.000 A 
ATOM     12  C6  UNL     1      -3.411  -0.036   0.594  0.00  0.00    +0.000 A 
ATOM     13 CL1  UNL     1      -5.126   0.051   0.934  0.00  0.00    +0.000 Cl
ATOM     14  C7  UNL     1      -2.870  -1.175   0.035  0.00  0.00    +0.000 A 
ATOM     15  C8  UNL     1      -1.529  -1.290  -0.251  0.00  0.00    +0.000 A 
ENDBRANCH   5   9
TORSDOF 1
