REMARK  Name = ./3D_structures\o23_MMV1579846_3D.pdb
REMARK  8 active torsions:
REMARK  status: ('A' for Active; 'I' for Inactive)
REMARK    1  A    between atoms: C1_1  and  O1_2
REMARK    2  A    between atoms: O1_2  and  C2_3
REMARK    3  A    between atoms: C4_5  and  C5_6
REMARK    4  A    between atoms: C5_6  and  C6_7
REMARK    5  A    between atoms: C11_16  and  O2_17
REMARK    6  A    between atoms: O2_17  and  C12_18
REMARK    7  A    between atoms: C13_19  and  O3_20
REMARK    8  A    between atoms: O3_20  and  C14_21
REMARK                            x       y       z     vdW  Elec       q    Type
REMARK                         _______ _______ _______ _____ _____    ______ ____
ROOT
ATOM      1  C5  UNL     1       0.817   1.912  -0.566  0.00  0.00    +0.000 C 
ENDROOT
BRANCH   1   2
ATOM      2  C6  UNL     1       2.033   1.184  -0.163  0.00  0.00    +0.000 C 
ATOM      3  C7  UNL     1       2.761   0.434  -1.057  0.00  0.00    +0.000 C 
ATOM      4  C8  UNL     1       3.905  -0.237  -0.630  0.00  0.00    +0.000 C 
ATOM      5  N1  UNL     1       4.699  -1.027  -1.499  0.00  0.00    +0.000 N 
ATOM      6  N2  UNL     1       4.258  -0.125   0.658  0.00  0.00    +0.000 NA
ATOM      7  C9  UNL     1       3.556   0.604   1.542  0.00  0.00    +0.000 C 
ATOM      8  N3  UNL     1       4.029   0.647   2.880  0.00  0.00    +0.000 N 
ATOM      9  N4  UNL     1       2.454   1.245   1.110  0.00  0.00    +0.000 NA
ATOM     10  H8  UNL     1       4.476  -2.050  -1.640  0.00  0.00    +0.000 HD
ATOM     11  H9  UNL     1       5.518  -0.677  -2.034  0.00  0.00    +0.000 HD
ATOM     12  H10 UNL     1       3.509   0.301   3.703  0.00  0.00    +0.000 HD
ATOM     13  H11 UNL     1       4.974   1.058   3.062  0.00  0.00    +0.000 HD
ENDBRANCH   1   2
BRANCH   1  16
ATOM     14  C2  UNL     1      -2.273   0.375   0.942  0.00  0.00    +0.000 A 
ATOM     15  C3  UNL     1      -1.106   1.128   0.764  0.00  0.00    +0.000 A 
ATOM     16  C4  UNL     1      -0.411   1.100  -0.421  0.00  0.00    +0.000 A 
ATOM     17  C10 UNL     1      -0.871   0.317  -1.457  0.00  0.00    +0.000 A 
ATOM     18  C11 UNL     1      -2.023  -0.451  -1.337  0.00  0.00    +0.000 A 
ATOM     19  C13 UNL     1      -2.683  -0.389  -0.128  0.00  0.00    +0.000 A 
BRANCH  14  21
ATOM     20  C1  UNL     1      -2.480   1.213   3.177  0.00  0.00    +0.000 C 
ATOM     21  O1  UNL     1      -2.963   0.414   2.145  0.00  0.00    +0.000 OA
ENDBRANCH  14  21
BRANCH  18  22
ATOM     22  O2  UNL     1      -2.523  -1.254  -2.349  0.00  0.00    +0.000 OA
ATOM     23  C12 UNL     1      -1.924  -1.383  -3.610  0.00  0.00    +0.000 C 
ENDBRANCH  18  22
BRANCH  19  24
ATOM     24  O3  UNL     1      -3.838  -1.138   0.040  0.00  0.00    +0.000 OA
ATOM     25  C14 UNL     1      -3.696  -2.456   0.544  0.00  0.00    +0.000 C 
ENDBRANCH  19  24
ENDBRANCH   1  16
TORSDOF 5
