REMARK  Name = ./3D_structures\o24_MMV1578842_3D.pdb
REMARK  12 active torsions:
REMARK  status: ('A' for Active; 'I' for Inactive)
REMARK    1  A    between atoms: C1_1  and  C2_2
REMARK    2  A    between atoms: C2_2  and  C3_3
REMARK    3  A    between atoms: C3_3  and  C4_4
REMARK    4  A    between atoms: C4_4  and  O1_5
REMARK    5  A    between atoms: O1_5  and  C5_6
REMARK    6  A    between atoms: N1_8  and  C6_9
REMARK    7  A    between atoms: C11_14  and  N2_15
REMARK    8  A    between atoms: N2_15  and  C12_16
REMARK    9  A    between atoms: N2_15  and  C14_18
REMARK   10  A    between atoms: C12_16  and  C13_17
REMARK   11  A    between atoms: C14_18  and  C15_19
REMARK   12  A    between atoms: C16_21  and  C17_23
REMARK                            x       y       z     vdW  Elec       q    Type
REMARK                         _______ _______ _______ _____ _____    ______ ____
ROOT
ATOM      1  C6  UNL     1       1.033  -0.148   0.362  0.00  0.00    +0.000 A 
ATOM      2  C7  UNL     1       0.217   0.916   0.009  0.00  0.00    +0.000 A 
ATOM      3  C8  UNL     1      -1.164   0.763  -0.174  0.00  0.00    +0.000 A 
ATOM      4  C9  UNL     1      -1.729  -0.479   0.000  0.00  0.00    +0.000 A 
ATOM      5  C10 UNL     1      -0.964  -1.563   0.350  0.00  0.00    +0.000 A 
ATOM      6  C11 UNL     1       0.412  -1.363   0.524  0.00  0.00    +0.000 A 
ATOM      7  N3  UNL     1      -3.052  -0.386  -0.227  0.00  0.00    +0.000 N 
ATOM      8  C16 UNL     1      -3.302   0.897  -0.538  0.00  0.00    +0.000 A 
ATOM      9  N4  UNL     1      -2.160   1.603  -0.508  0.00  0.00    +0.000 NA
ATOM     10  H23 UNL     1      -3.718  -1.186  -0.162  0.00  0.00    +0.000 HD
ENDROOT
BRANCH   8  11
ATOM     11  C17 UNL     1      -4.690   1.375  -0.858  0.00  0.00    +0.000 C 
ATOM     12  C18 UNL     1      -5.157   0.665  -2.125  0.00  0.00    +0.000 C 
ATOM     13  C19 UNL     1      -6.614   0.308  -2.063  0.00  0.00    +0.000 C 
ATOM     14  C20 UNL     1      -7.386   1.402  -1.374  0.00  0.00    +0.000 C 
ATOM     15  C21 UNL     1      -6.984   1.470   0.064  0.00  0.00    +0.000 C 
ATOM     16  C22 UNL     1      -5.580   1.022   0.295  0.00  0.00    +0.000 C 
ENDBRANCH   8  11
BRANCH   1  19
ATOM     17  C5  UNL     1       3.193   1.166   0.480  0.00  0.00    +0.000 C 
ATOM     18  O2  UNL     1       2.646   2.261   0.372  0.00  0.00    +0.000 OA
ATOM     19  N1  UNL     1       2.438  -0.009   0.479  0.00  0.00    +0.000 N 
ATOM     20  H10 UNL     1       2.997  -0.907   0.552  0.00  0.00    +0.000 HD
BRANCH  17  21
ATOM     21  O1  UNL     1       4.594   1.160   0.602  0.00  0.00    +0.000 OA
BRANCH  21  22
ATOM     22  C4  UNL     1       5.356   2.342   0.597  0.00  0.00    +0.000 C 
BRANCH  22  23
ATOM     23  C3  UNL     1       5.241   3.117  -0.669  0.00  0.00    +0.000 C 
BRANCH  23  25
ATOM     24  C1  UNL     1       7.163   1.849  -1.558  0.00  0.00    +0.000 C 
ATOM     25  C2  UNL     1       5.720   2.232  -1.818  0.00  0.00    +0.000 C 
ENDBRANCH  23  25
ENDBRANCH  22  23
ENDBRANCH  21  22
ENDBRANCH  17  21
ENDBRANCH   1  19
BRANCH   6  26
ATOM     26  N2  UNL     1       1.181  -2.487   0.955  0.00  0.00    +0.000 N 
BRANCH  26  27
ATOM     27  C12 UNL     1       1.470  -2.658   2.353  0.00  0.00    +0.000 C 
ATOM     28  C13 UNL     1       2.912  -2.552   2.745  0.00  0.00    +0.000 C 
ENDBRANCH  26  27
BRANCH  26  29
ATOM     29  C14 UNL     1       1.642  -3.455   0.009  0.00  0.00    +0.000 C 
ATOM     30  C15 UNL     1       0.953  -4.793   0.147  0.00  0.00    +0.000 C 
ENDBRANCH  26  29
ENDBRANCH   6  26
TORSDOF 9
