REMARK  Name = ./3D_structures\o25_MMV1579776_3D.pdb
REMARK  6 active torsions:
REMARK  status: ('A' for Active; 'I' for Inactive)
REMARK    1  A    between atoms: N1_1  and  S1_2
REMARK    2  A    between atoms: S1_2  and  C1_5
REMARK    3  A    between atoms: C4_8  and  N2_9
REMARK    4  A    between atoms: N3_12  and  C6_13
REMARK    5  A    between atoms: C6_13  and  C7_14
REMARK    6  A    between atoms: C6_13  and  C13_20
REMARK                            x       y       z     vdW  Elec       q    Type
REMARK                         _______ _______ _______ _____ _____    ______ ____
ROOT
ATOM      1  N2  UNL     1       1.402   0.953   0.155  0.00  0.00    +0.000 N 
ATOM      2  C5  UNL     1       0.266   0.177  -0.110  0.00  0.00    +0.000 C 
ATOM      3  O3  UNL     1       0.354  -0.872  -0.783  0.00  0.00    +0.000 OA
ATOM      4  N3  UNL     1      -1.035   0.589   0.401  0.00  0.00    +0.000 N 
ATOM      5  H5  UNL     1       1.265   1.853   0.737  0.00  0.00    +0.000 HD
ATOM      6  H6  UNL     1      -1.057   1.468   0.955  0.00  0.00    +0.000 HD
ENDROOT
BRANCH   1  10
ATOM      7  C1  UNL     1       5.428   0.187  -1.082  0.00  0.00    +0.000 A 
ATOM      8  C2  UNL     1       5.011   1.388  -0.549  0.00  0.00    +0.000 A 
ATOM      9  C3  UNL     1       3.719   1.626  -0.160  0.00  0.00    +0.000 A 
ATOM     10  C4  UNL     1       2.715   0.643  -0.281  0.00  0.00    +0.000 A 
ATOM     11  C19 UNL     1       3.135  -0.545  -0.810  0.00  0.00    +0.000 A 
ATOM     12  C20 UNL     1       4.461  -0.782  -1.207  0.00  0.00    +0.000 A 
BRANCH   7  13
ATOM     13  S1  UNL     1       7.086  -0.084  -1.568  0.00  0.00    +0.000 S 
ATOM     14  O1  UNL     1       7.731   1.161  -2.096  0.00  0.00    +0.000 OA
ATOM     15  O2  UNL     1       7.156  -1.107  -2.693  0.00  0.00    +0.000 OA
BRANCH  13  16
ATOM     16  N1  UNL     1       8.031  -0.716  -0.273  0.00  0.00    +0.000 NA
ATOM     17  H1  UNL     1       8.975  -0.287  -0.212  0.00  0.00    +0.000 HD
ATOM     18  H2  UNL     1       8.025  -1.740  -0.312  0.00  0.00    +0.000 HD
ENDBRANCH  13  16
ENDBRANCH   7  13
ENDBRANCH   1  10
BRANCH   4  19
ATOM     19  C6  UNL     1      -2.196  -0.205   0.130  0.00  0.00    +0.000 C 
BRANCH  19  20
ATOM     20  C7  UNL     1      -3.209   0.494  -0.675  0.00  0.00    +0.000 A 
ATOM     21  C8  UNL     1      -4.540   0.441  -0.343  0.00  0.00    +0.000 A 
ATOM     22  C9  UNL     1      -5.500   1.109  -1.115  0.00  0.00    +0.000 A 
ATOM     23  C10 UNL     1      -5.075   1.819  -2.212  0.00  0.00    +0.000 A 
ATOM     24  C11 UNL     1      -3.748   1.889  -2.567  0.00  0.00    +0.000 A 
ATOM     25  C12 UNL     1      -2.829   1.214  -1.778  0.00  0.00    +0.000 A 
ENDBRANCH  19  20
BRANCH  19  26
ATOM     26  C13 UNL     1      -2.780  -0.793   1.371  0.00  0.00    +0.000 A 
ATOM     27  C14 UNL     1      -2.944  -0.030   2.518  0.00  0.00    +0.000 A 
ATOM     28  C15 UNL     1      -3.478  -0.543   3.677  0.00  0.00    +0.000 A 
ATOM     29  C16 UNL     1      -3.878  -1.861   3.739  0.00  0.00    +0.000 A 
ATOM     30  C17 UNL     1      -3.720  -2.627   2.607  0.00  0.00    +0.000 A 
ATOM     31  C18 UNL     1      -3.184  -2.111   1.446  0.00  0.00    +0.000 A 
ENDBRANCH  19  26
ENDBRANCH   4  19
TORSDOF 6
