REMARK  Name = ./3D_structures\o26_MMV1579775_3D.pdb
REMARK  5 active torsions:
REMARK  status: ('A' for Active; 'I' for Inactive)
REMARK    1  A    between atoms: C3_4  and  O2_5
REMARK    2  A    between atoms: O2_5  and  C4_6
REMARK    3  A    between atoms: C4_6  and  C5_7
REMARK    4  A    between atoms: N1_15  and  C13_16
REMARK    5  A    between atoms: C13_16  and  C14_17
REMARK                            x       y       z     vdW  Elec       q    Type
REMARK                         _______ _______ _______ _____ _____    ______ ____
ROOT
ATOM      1  O1  UNL     1      -2.063  -2.762   0.176  0.00  0.00    +0.000 OA
ATOM      2  C1  UNL     1      -1.370  -1.739   0.458  0.00  0.00    +0.000 A 
ATOM      3  C2  UNL     1      -0.013  -1.716   0.115  0.00  0.00    +0.000 A 
ATOM      4  C3  UNL     1       0.778  -0.624   0.403  0.00  0.00    +0.000 A 
ATOM      5  C11 UNL     1       0.177   0.438   1.040  0.00  0.00    +0.000 A 
ATOM      6  C12 UNL     1      -1.172   0.385   1.368  0.00  0.00    +0.000 A 
ATOM      7  N1  UNL     1      -1.941  -0.694   1.080  0.00  0.00    +0.000 N 
ENDROOT
BRANCH   4   8
ATOM      8  O2  UNL     1       2.106  -0.572   0.080  0.00  0.00    +0.000 OA
BRANCH   8   9
ATOM      9  C4  UNL     1       2.864   0.565   0.397  0.00  0.00    +0.000 C 
BRANCH   9  10
ATOM     10  C5  UNL     1       4.283   0.396  -0.049  0.00  0.00    +0.000 A 
ATOM     11  C6  UNL     1       4.716  -0.754  -0.684  0.00  0.00    +0.000 A 
ATOM     12  C7  UNL     1       6.031  -0.880  -1.083  0.00  0.00    +0.000 A 
ATOM     13  C8  UNL     1       6.962   0.114  -0.875  0.00  0.00    +0.000 A 
ATOM     14  C9  UNL     1       6.534   1.268  -0.241  0.00  0.00    +0.000 A 
ATOM     15  C10 UNL     1       5.218   1.388   0.156  0.00  0.00    +0.000 A 
ENDBRANCH   9  10
ENDBRANCH   8   9
ENDBRANCH   4   8
BRANCH   7  16
ATOM     16  C13 UNL     1      -3.321  -0.685   1.441  0.00  0.00    +0.000 C 
BRANCH  16  17
ATOM     17  C14 UNL     1      -4.240  -0.146   0.442  0.00  0.00    +0.000 A 
ATOM     18  C15 UNL     1      -4.831  -0.983  -0.476  0.00  0.00    +0.000 A 
ATOM     19  C16 UNL     1      -5.706  -0.523  -1.442  0.00  0.00    +0.000 A 
ATOM     20  C17 UNL     1      -6.013   0.811  -1.510  0.00  0.00    +0.000 A 
ATOM     21  C18 UNL     1      -5.428   1.662  -0.596  0.00  0.00    +0.000 A 
ATOM     22  C19 UNL     1      -4.552   1.195   0.370  0.00  0.00    +0.000 A 
ENDBRANCH  16  17
ENDBRANCH   7  16
TORSDOF 5
