REMARK  Name = ./3D_structures\o27_MMV1579354_3D.pdb
REMARK  5 active torsions:
REMARK  status: ('A' for Active; 'I' for Inactive)
REMARK    1  A    between atoms: C1_1  and  C2_2
REMARK    2  A    between atoms: C2_2  and  N1_4
REMARK    3  A    between atoms: N2_7  and  C5_8
REMARK    4  A    between atoms: C5_8  and  C6_9
REMARK    5  A    between atoms: C11_14  and  C12_15
REMARK                            x       y       z     vdW  Elec       q    Type
REMARK                         _______ _______ _______ _____ _____    ______ ____
ROOT
ATOM      1  N1  UNL     1      -2.012  -0.245   0.655  0.00  0.00    +0.000 N 
ATOM      2  C4  UNL     1      -0.871  -0.906   0.882  0.00  0.00    +0.000 A 
ATOM      3  O1  UNL     1      -0.556  -1.477   1.956  0.00  0.00    +0.000 OA
ATOM      4  N2  UNL     1      -0.062  -0.883  -0.234  0.00  0.00    +0.000 N 
ATOM      5  C13 UNL     1      -0.752  -0.190  -1.136  0.00  0.00    +0.000 A 
ATOM      6  C14 UNL     1      -0.503   0.163  -2.451  0.00  0.00    +0.000 A 
ATOM      7  C15 UNL     1      -1.398   0.886  -3.223  0.00  0.00    +0.000 A 
ATOM      8  C16 UNL     1      -2.597   1.287  -2.693  0.00  0.00    +0.000 A 
ATOM      9  C17 UNL     1      -2.861   0.933  -1.362  0.00  0.00    +0.000 A 
ATOM     10  C18 UNL     1      -1.971   0.217  -0.602  0.00  0.00    +0.000 A 
ENDROOT
BRANCH   1  12
ATOM     11  C1  UNL     1      -4.014   1.079   1.551  0.00  0.00    +0.000 C 
ATOM     12  C2  UNL     1      -3.095  -0.089   1.592  0.00  0.00    +0.000 C 
ATOM     13  C3  UNL     1      -3.269  -0.976   2.540  0.00  0.00    +0.000 C 
ENDBRANCH   1  12
BRANCH   4  14
ATOM     14  C5  UNL     1       1.222  -1.554  -0.296  0.00  0.00    +0.000 C 
BRANCH  14  15
ATOM     15  C6  UNL     1       2.341  -0.871   0.302  0.00  0.00    +0.000 A 
ATOM     16  C7  UNL     1       2.709  -1.250   1.610  0.00  0.00    +0.000 A 
ATOM     17  C8  UNL     1       3.736  -0.655   2.297  0.00  0.00    +0.000 A 
ATOM     18  C9  UNL     1       4.456   0.356   1.712  0.00  0.00    +0.000 A 
ATOM     19  C10 UNL     1       4.116   0.744   0.434  0.00  0.00    +0.000 A 
ATOM     20  C11 UNL     1       3.054   0.119  -0.260  0.00  0.00    +0.000 A 
ATOM     21  C12 UNL     1       2.796   0.585  -1.617  0.00  0.00    +0.000 C 
ENDBRANCH  14  15
ENDBRANCH   4  14
TORSDOF 3
