REMARK  Name = ./3D_structures\o28_MMV1578899_3D.pdb
REMARK  7 active torsions:
REMARK  status: ('A' for Active; 'I' for Inactive)
REMARK    1  A    between atoms: C1_1  and  C2_2
REMARK    2  A    between atoms: C2_2  and  C3_3
REMARK    3  A    between atoms: C3_3  and  C4_4
REMARK    4  A    between atoms: C4_4  and  O2_6
REMARK    5  A    between atoms: O2_6  and  C5_7
REMARK    6  A    between atoms: C5_7  and  C6_8
REMARK    7  A    between atoms: C6_8  and  C7_9
REMARK                            x       y       z     vdW  Elec       q    Type
REMARK                         _______ _______ _______ _____ _____    ______ ____
ROOT
ATOM      1  C5  UNL     1       0.320   0.412  -1.907  0.00  0.00    +0.000 C 
ENDROOT
BRANCH   1   2
ATOM      2  O2  UNL     1      -0.406   0.612  -0.712  0.00  0.00    +0.000 OA
BRANCH   2   3
ATOM      3  C4  UNL     1      -1.714   0.133  -0.647  0.00  0.00    +0.000 C 
ATOM      4  O1  UNL     1      -2.188  -0.452  -1.647  0.00  0.00    +0.000 OA
BRANCH   3   5
ATOM      5  C3  UNL     1      -2.560   0.289   0.554  0.00  0.00    +0.000 C 
BRANCH   5   7
ATOM      6  C1  UNL     1      -4.848  -0.244   1.425  0.00  0.00    +0.000 C 
ATOM      7  C2  UNL     1      -3.903  -0.341   0.276  0.00  0.00    +0.000 C 
ENDBRANCH   5   7
ENDBRANCH   3   5
ENDBRANCH   2   3
ENDBRANCH   1   2
BRANCH   1   8
ATOM      8  C6  UNL     1       1.701   0.965  -1.858  0.00  0.00    +0.000 C 
BRANCH   8   9
ATOM      9  C7  UNL     1       2.525   0.355  -0.779  0.00  0.00    +0.000 A 
ATOM     10  C8  UNL     1       2.577   0.877   0.497  0.00  0.00    +0.000 A 
ATOM     11  C9  UNL     1       3.346   0.305   1.498  0.00  0.00    +0.000 A 
ATOM     12  C10 UNL     1       4.095  -0.825   1.243  0.00  0.00    +0.000 A 
ATOM     13  C11 UNL     1       4.045  -1.351  -0.031  0.00  0.00    +0.000 A 
ATOM     14  C12 UNL     1       3.275  -0.776  -1.029  0.00  0.00    +0.000 A 
ENDBRANCH   8   9
ENDBRANCH   1   8
TORSDOF 6
