REMARK  Name = ./3D_structures\o29_MMV1578890_3D.pdb
REMARK  3 active torsions:
REMARK  status: ('A' for Active; 'I' for Inactive)
REMARK    1  A    between atoms: S1_2  and  N1_4
REMARK    2  A    between atoms: S1_2  and  C10_15
REMARK    3  A    between atoms: N1_4  and  C1_5
REMARK                            x       y       z     vdW  Elec       q    Type
REMARK                         _______ _______ _______ _____ _____    ______ ____
ROOT
ATOM      1  N1  UNL     1      -0.310   1.746  -0.749  0.00  0.00    +0.000 N 
ATOM      2  H1  UNL     1      -0.776   2.565  -0.247  0.00  0.00    +0.000 HD
ENDROOT
BRANCH   1   3
ATOM      3  C1  UNL     1      -1.058   0.548  -0.834  0.00  0.00    +0.000 A 
ATOM      4  C2  UNL     1      -0.812  -0.360  -1.840  0.00  0.00    +0.000 A 
ATOM      5  C3  UNL     1      -1.552  -1.542  -1.941  0.00  0.00    +0.000 A 
ATOM      6  C4  UNL     1      -2.528  -1.748  -0.993  0.00  0.00    +0.000 A 
ATOM      7  C5  UNL     1      -2.796  -0.859   0.022  0.00  0.00    +0.000 A 
ATOM      8  C6  UNL     1      -3.780  -1.074   0.971  0.00  0.00    +0.000 A 
ATOM      9  C7  UNL     1      -4.016  -0.156   1.972  0.00  0.00    +0.000 A 
ATOM     10  C8  UNL     1      -3.263   0.998   2.036  0.00  0.00    +0.000 A 
ATOM     11  N2  UNL     1      -2.318   1.170   1.097  0.00  0.00    +0.000 NA
ATOM     12  C9  UNL     1      -2.060   0.300   0.109  0.00  0.00    +0.000 A 
ENDBRANCH   1   3
BRANCH   1  14
ATOM     13  O1  UNL     1       1.855   3.243  -1.177  0.00  0.00    +0.000 OA
ATOM     14  S1  UNL     1       1.255   1.864  -1.418  0.00  0.00    +0.000 S 
ATOM     15  O2  UNL     1       1.225   1.691  -2.910  0.00  0.00    +0.000 OA
BRANCH  14  16
ATOM     16  C10 UNL     1       2.395   0.734  -0.673  0.00  0.00    +0.000 A 
ATOM     17  C11 UNL     1       3.059   1.100   0.477  0.00  0.00    +0.000 A 
ATOM     18  C12 UNL     1       3.968   0.304   1.135  0.00  0.00    +0.000 A 
ATOM     19  C13 UNL     1       4.212  -0.944   0.580  0.00  0.00    +0.000 A 
ATOM     20  C14 UNL     1       3.556  -1.328  -0.574  0.00  0.00    +0.000 A 
ATOM     21  C15 UNL     1       2.650  -0.505  -1.208  0.00  0.00    +0.000 A 
ENDBRANCH  14  16
ENDBRANCH   1  14
TORSDOF 3
