REMARK  Name = ./3D_structures\o2_MMV508427_3D.pdb
REMARK  6 active torsions:
REMARK  status: ('A' for Active; 'I' for Inactive)
REMARK    1  A    between atoms: C1_2  and  C2_4
REMARK    2  A    between atoms: C7_9  and  N2_10
REMARK    3  A    between atoms: C8_11  and  C9_13
REMARK    4  A    between atoms: C12_16  and  C15_19
REMARK    5  A    between atoms: N3_21  and  C16_22
REMARK    6  A    between atoms: C21_27  and  C22_28
REMARK                            x       y       z     vdW  Elec       q    Type
REMARK                         _______ _______ _______ _____ _____    ______ ____
ROOT
ATOM      1  C9  UNL     1       1.363  -0.274  -0.480  0.00  0.00    +0.000 A 
ATOM      2  C10 UNL     1       0.321  -0.723  -1.288  0.00  0.00    +0.000 A 
ATOM      3  C11 UNL     1      -1.011  -0.675  -0.880  0.00  0.00    +0.000 A 
ATOM      4  C12 UNL     1      -1.295  -0.171   0.354  0.00  0.00    +0.000 A 
ATOM      5  C13 UNL     1      -0.257   0.276   1.160  0.00  0.00    +0.000 A 
ATOM      6  C14 UNL     1       1.078   0.224   0.742  0.00  0.00    +0.000 A 
ENDROOT
BRANCH   1   8
ATOM      7  N2  UNL     1       3.824  -0.046  -0.163  0.00  0.00    +0.000 N 
ATOM      8  C8  UNL     1       2.744  -0.360  -0.997  0.00  0.00    +0.000 C 
ATOM      9  O2  UNL     1       2.911  -0.717  -2.180  0.00  0.00    +0.000 OA
ATOM     10  H7  UNL     1       3.652   0.225   0.840  0.00  0.00    +0.000 HD
BRANCH   7  16
ATOM     11  C2  UNL     1       6.160   0.525   0.182  0.00  0.00    +0.000 A 
ATOM     12  C3  UNL     1       7.493   0.365  -0.182  0.00  0.00    +0.000 A 
ATOM     13  C4  UNL     1       7.813  -0.410  -1.258  0.00  0.00    +0.000 A 
ATOM     14  C5  UNL     1       6.845  -1.031  -1.982  0.00  0.00    +0.000 A 
ATOM     15  C6  UNL     1       5.511  -0.893  -1.646  0.00  0.00    +0.000 A 
ATOM     16  C7  UNL     1       5.178  -0.108  -0.555  0.00  0.00    +0.000 A 
BRANCH  11  18
ATOM     17  N1  UNL     1       7.001   1.991   2.021  0.00  0.00    +0.000 N 
ATOM     18  C1  UNL     1       5.900   1.400   1.284  0.00  0.00    +0.000 C 
ATOM     19  O1  UNL     1       4.767   1.701   1.672  0.00  0.00    +0.000 OA
ATOM     20  H1  UNL     1       7.043   1.826   3.027  0.00  0.00    +0.000 HD
ATOM     21  H2  UNL     1       7.706   2.556   1.527  0.00  0.00    +0.000 HD
ENDBRANCH  11  18
ENDBRANCH   7  16
ENDBRANCH   1   8
BRANCH   4  22
ATOM     22  C15 UNL     1      -2.658  -0.052   0.912  0.00  0.00    +0.000 C 
ATOM     23  O3  UNL     1      -2.767   0.136   2.133  0.00  0.00    +0.000 OA
ATOM     24  N3  UNL     1      -3.825  -0.148   0.087  0.00  0.00    +0.000 N 
ATOM     25  H12 UNL     1      -3.558  -0.300  -0.926  0.00  0.00    +0.000 HD
BRANCH  24  26
ATOM     26  C16 UNL     1      -5.159  -0.052   0.501  0.00  0.00    +0.000 A 
ATOM     27  C17 UNL     1      -5.522   0.191   1.827  0.00  0.00    +0.000 A 
ATOM     28  C18 UNL     1      -6.842   0.289   2.217  0.00  0.00    +0.000 A 
ATOM     29  C19 UNL     1      -7.868   0.153   1.319  0.00  0.00    +0.000 A 
ATOM     30  C20 UNL     1      -7.528  -0.085   0.018  0.00  0.00    +0.000 A 
ATOM     31  C21 UNL     1      -6.188  -0.190  -0.403  0.00  0.00    +0.000 A 
BRANCH  31  32
ATOM     32  C22 UNL     1      -5.955  -0.450  -1.811  0.00  0.00    +0.000 C 
ATOM     33  O4  UNL     1      -4.887  -0.587  -2.411  0.00  0.00    +0.000 OA
ATOM     34  N4  UNL     1      -7.122  -0.570  -2.660  0.00  0.00    +0.000 N 
ATOM     35  H17 UNL     1      -7.263  -1.456  -3.148  0.00  0.00    +0.000 HD
ATOM     36  H18 UNL     1      -7.755   0.226  -2.741  0.00  0.00    +0.000 HD
ENDBRANCH  31  32
ENDBRANCH  24  26
ENDBRANCH   4  22
TORSDOF 6
