REMARK  Name = ./3D_structures\o30_MMV1578886_3D.pdb
REMARK  3 active torsions:
REMARK  status: ('A' for Active; 'I' for Inactive)
REMARK    1  A    between atoms: C1_1  and  C2_2
REMARK    2  A    between atoms: C1_1  and  N1_8
REMARK    3  A    between atoms: C8_9  and  C15_17
REMARK                            x       y       z     vdW  Elec       q    Type
REMARK                         _______ _______ _______ _____ _____    ______ ____
ROOT
ATOM      1  N1  UNL     1      -0.533  -0.334  -0.706  0.00  0.00    +0.000 N 
ATOM      2  C8  UNL     1      -1.452   0.002   0.167  0.00  0.00    +0.000 A 
ATOM      3  N2  UNL     1      -2.050  -1.194   0.527  0.00  0.00    +0.000 NA
ATOM      4  C9  UNL     1      -1.504  -2.219  -0.117  0.00  0.00    +0.000 A 
ATOM      5  C10 UNL     1      -1.703  -3.590  -0.147  0.00  0.00    +0.000 A 
ATOM      6  C11 UNL     1      -0.972  -4.435  -0.936  0.00  0.00    +0.000 A 
ATOM      7  C12 UNL     1       0.015  -3.875  -1.740  0.00  0.00    +0.000 A 
ATOM      8  C13 UNL     1       0.226  -2.516  -1.722  0.00  0.00    +0.000 A 
ATOM      9  C14 UNL     1      -0.528  -1.698  -0.916  0.00  0.00    +0.000 A 
ENDROOT
BRANCH   2  10
ATOM     10  C15 UNL     1      -1.937   1.226   0.745  0.00  0.00    +0.000 A 
ATOM     11  C16 UNL     1      -1.521   2.498   0.522  0.00  0.00    +0.000 A 
ATOM     12  C17 UNL     1      -2.087   3.630   1.129  0.00  0.00    +0.000 A 
ATOM     13  C18 UNL     1      -3.125   3.468   2.007  0.00  0.00    +0.000 A 
ATOM     14  C19 UNL     1      -3.548   2.180   2.236  0.00  0.00    +0.000 A 
ATOM     15  N3  UNL     1      -2.985   1.145   1.641  0.00  0.00    +0.000 NA
ENDBRANCH   2  10
BRANCH   1  16
ATOM     16  C1  UNL     1       0.399   0.517  -1.357  0.00  0.00    +0.000 C 
BRANCH  16  17
ATOM     17  C2  UNL     1       1.700   0.551  -0.647  0.00  0.00    +0.000 A 
ATOM     18  C3  UNL     1       2.849  -0.083  -1.136  0.00  0.00    +0.000 A 
ATOM     19  C4  UNL     1       4.054  -0.087  -0.500  0.00  0.00    +0.000 A 
ATOM     20  C5  UNL     1       4.179   0.570   0.706  0.00  0.00    +0.000 A 
ATOM     21  C6  UNL     1       3.086   1.206   1.227  0.00  0.00    +0.000 A 
ATOM     22  C7  UNL     1       1.874   1.188   0.552  0.00  0.00    +0.000 A 
ENDBRANCH  16  17
ENDBRANCH   1  16
TORSDOF 3
