REMARK  Name = ./3D_structures\o31_MMV1578573_3D.pdb
REMARK  5 active torsions:
REMARK  status: ('A' for Active; 'I' for Inactive)
REMARK    1  A    between atoms: C1_1  and  O1_2
REMARK    2  A    between atoms: O1_2  and  C2_3
REMARK    3  A    between atoms: C5_6  and  S1_7
REMARK    4  A    between atoms: S1_7  and  C6_8
REMARK    5  A    between atoms: C6_8  and  C7_9
REMARK                            x       y       z     vdW  Elec       q    Type
REMARK                         _______ _______ _______ _____ _____    ______ ____
ROOT
ATOM      1  C7  UNL     1      -0.884  -0.924   0.008  0.00  0.00    +0.000 C 
ATOM      2  O2  UNL     1      -0.020  -0.790  -1.000  0.00  0.00    +0.000 OA
ATOM      3  N1  UNL     1      -2.000  -0.084  -0.056  0.00  0.00    +0.000 N 
ATOM      4  C8  UNL     1      -2.280   0.484  -1.377  0.00  0.00    +0.000 A 
ATOM      5  C9  UNL     1      -1.667  -0.040  -2.509  0.00  0.00    +0.000 A 
ATOM      6  C10 UNL     1      -1.947   0.393  -3.795  0.00  0.00    +0.000 A 
ATOM      7  C11 UNL     1      -2.871   1.385  -4.007  0.00  0.00    +0.000 A 
ATOM      8  C12 UNL     1      -3.478   1.899  -2.884  0.00  0.00    +0.000 A 
ATOM      9  C13 UNL     1      -3.191   1.463  -1.621  0.00  0.00    +0.000 A 
ATOM     10  S2  UNL     1      -4.091   2.223  -0.308  0.00  0.00    +0.000 S 
ATOM     11  C14 UNL     1      -3.671   1.316   1.157  0.00  0.00    +0.000 A 
ATOM     12  C15 UNL     1      -4.338   1.673   2.301  0.00  0.00    +0.000 A 
ATOM     13  C16 UNL     1      -4.085   1.091   3.520  0.00  0.00    +0.000 A 
ATOM     14  C17 UNL     1      -3.116   0.126   3.509  0.00  0.00    +0.000 A 
ATOM     15  C18 UNL     1      -2.440  -0.234   2.336  0.00  0.00    +0.000 A 
ATOM     16  C19 UNL     1      -2.699   0.353   1.113  0.00  0.00    +0.000 A 
ENDROOT
BRANCH   1  17
ATOM     17  C6  UNL     1      -0.386  -1.956   0.894  0.00  0.00    +0.000 C 
BRANCH  17  18
ATOM     18  S1  UNL     1       0.920  -1.455   2.041  0.00  0.00    +0.000 S 
BRANCH  18  22
ATOM     19  C2  UNL     1       4.780  -0.317  -0.033  0.00  0.00    +0.000 A 
ATOM     20  C3  UNL     1       4.573  -1.621   0.339  0.00  0.00    +0.000 A 
ATOM     21  C4  UNL     1       3.376  -1.961   0.978  0.00  0.00    +0.000 A 
ATOM     22  C5  UNL     1       2.417  -1.016   1.236  0.00  0.00    +0.000 A 
ATOM     23  C20 UNL     1       2.634   0.284   0.860  0.00  0.00    +0.000 A 
ATOM     24  C21 UNL     1       3.821   0.635   0.223  0.00  0.00    +0.000 A 
BRANCH  19  26
ATOM     25  C1  UNL     1       6.268   1.334  -1.084  0.00  0.00    +0.000 C 
ATOM     26  O1  UNL     1       5.968   0.017  -0.666  0.00  0.00    +0.000 OA
ENDBRANCH  19  26
ENDBRANCH  18  22
ENDBRANCH  17  18
ENDBRANCH   1  17
TORSDOF 4
