REMARK  Name = ./3D_structures\o32_MMV1578571_3D.pdb
REMARK  9 active torsions:
REMARK  status: ('A' for Active; 'I' for Inactive)
REMARK    1  A    between atoms: C1_1  and  C2_2
REMARK    2  A    between atoms: C2_2  and  C3_3
REMARK    3  A    between atoms: C2_2  and  C4_4
REMARK    4  A    between atoms: C2_2  and  C5_5
REMARK    5  A    between atoms: C6_8  and  C8_10
REMARK    6  A    between atoms: C8_10  and  C9_12
REMARK    7  A    between atoms: C9_12  and  C16_22
REMARK    8  A    between atoms: N2_13  and  N3_14
REMARK    9  A    between atoms: N3_14  and  C10_15
REMARK                            x       y       z     vdW  Elec       q    Type
REMARK                         _______ _______ _______ _____ _____    ______ ____
ROOT
ATOM      1  C9  UNL     1       1.478   1.004  -0.781  0.00  0.00    +0.000 C 
ATOM      2  N2  UNL     1       2.376   1.232  -1.622  0.00  0.00    +0.000 NA
ENDROOT
BRANCH   1   3
ATOM      3  C8  UNL     1       0.025   1.093  -1.189  0.00  0.00    +0.000 C 
ATOM      4  O2  UNL     1      -0.335   1.257  -2.289  0.00  0.00    +0.000 OA
BRANCH   3   8
ATOM      5  C5  UNL     1      -3.013   0.157   0.472  0.00  0.00    +0.000 A 
ATOM      6  O1  UNL     1      -2.374   0.427   1.582  0.00  0.00    +0.000 OA
ATOM      7  N1  UNL     1      -1.219   0.823   1.144  0.00  0.00    +0.000 NA
ATOM      8  C6  UNL     1      -0.811   0.935   0.155  0.00  0.00    +0.000 A 
ATOM      9  C7  UNL     1      -2.180   0.413  -0.558  0.00  0.00    +0.000 A 
BRANCH   5  11
ATOM     10  C1  UNL     1      -4.281  -1.801  -0.162  0.00  0.00    +0.000 C 
ATOM     11  C2  UNL     1      -4.425  -0.357   0.290  0.00  0.00    +0.000 C 
ATOM     12  C3  UNL     1      -5.215  -0.229   1.562  0.00  0.00    +0.000 C 
ATOM     13  C4  UNL     1      -5.086   0.400  -0.861  0.00  0.00    +0.000 C 
ENDBRANCH   5  11
ENDBRANCH   3   8
ENDBRANCH   1   3
BRANCH   2  14
ATOM     14  N3  UNL     1       3.729   1.207  -1.423  0.00  0.00    +0.000 N 
ATOM     15  H11 UNL     1       4.306   1.813  -2.102  0.00  0.00    +0.000 HD
BRANCH  14  16
ATOM     16  C10 UNL     1       4.520   0.524  -0.474  0.00  0.00    +0.000 A 
ATOM     17  C11 UNL     1       4.978  -0.741  -0.932  0.00  0.00    +0.000 A 
ATOM     18  C12 UNL     1       5.774  -1.454   0.007  0.00  0.00    +0.000 A 
ATOM     19  C13 UNL     1       6.069  -1.008   1.188  0.00  0.00    +0.000 A 
ATOM     20  C14 UNL     1       5.635   0.240   1.688  0.00  0.00    +0.000 A 
ATOM     21 CL1  UNL     1       6.025   0.818   3.218  0.00  0.00    +0.000 Cl
ATOM     22  C15 UNL     1       4.839   0.953   0.740  0.00  0.00    +0.000 A 
ENDBRANCH  14  16
ENDBRANCH   2  14
BRANCH   1  23
ATOM     23  C16 UNL     1       1.820   0.522   0.515  0.00  0.00    +0.000 C 
ATOM     24  N4  UNL     1       2.098   0.134   1.613  0.00  0.00    +0.000 NA
ENDBRANCH   1  23
TORSDOF 6
