REMARK  Name = ./3D_structures\o33_MMV687273_3D.pdb
REMARK  12 active torsions:
REMARK  status: ('A' for Active; 'I' for Inactive)
REMARK    1  A    between atoms: C1_1  and  C2_2
REMARK    2  A    between atoms: C2_2  and  C22_24
REMARK    3  A    between atoms: C3_3  and  C4_4
REMARK    4  A    between atoms: C4_4  and  C5_5
REMARK    5  A    between atoms: C5_5  and  C6_6
REMARK    6  A    between atoms: C6_6  and  C21_23
REMARK    7  A    between atoms: C7_7  and  C8_8
REMARK    8  A    between atoms: C8_8  and  N1_9
REMARK    9  A    between atoms: N1_9  and  C9_10
REMARK   10  A    between atoms: C9_10  and  C10_11
REMARK   11  A    between atoms: C10_11  and  N2_12
REMARK   12  A    between atoms: N2_12  and  C11_13
REMARK                            x       y       z     vdW  Elec       q    Type
REMARK                         _______ _______ _______ _____ _____    ______ ____
ROOT
ATOM      1  C9  UNL     1      -0.521  -2.360   0.296  0.00  0.00    +0.000 C 
ENDROOT
BRANCH   1   2
ATOM      2  N1  UNL     1       0.706  -1.649   0.267  0.00  0.00    +0.000 NA
ATOM      3  H12 UNL     1       0.990  -1.569  -0.742  0.00  0.00    +0.000 HD
BRANCH   2   4
ATOM      4  C8  UNL     1       0.682  -0.352   0.813  0.00  0.00    +0.000 C 
BRANCH   4   6
ATOM      5  C6  UNL     1       3.126  -0.019   0.819  0.00  0.00    +0.000 C 
ATOM      6  C7  UNL     1       1.895   0.394   1.025  0.00  0.00    +0.000 C 
ATOM      7  C21 UNL     1       3.361  -1.409   0.389  0.00  0.00    +0.000 C 
BRANCH   5   8
ATOM      8  C5  UNL     1       4.225   0.941   1.108  0.00  0.00    +0.000 C 
BRANCH   8   9
ATOM      9  C4  UNL     1       5.086   1.324  -0.031  0.00  0.00    +0.000 C 
BRANCH   9  12
ATOM     10  C1  UNL     1       7.896   1.292   0.097  0.00  0.00    +0.000 C 
ATOM     11  C2  UNL     1       7.170   0.176  -0.571  0.00  0.00    +0.000 C 
ATOM     12  C3  UNL     1       5.823   0.197  -0.630  0.00  0.00    +0.000 C 
ATOM     13  C22 UNL     1       7.920  -0.958  -1.171  0.00  0.00    +0.000 C 
ENDBRANCH   9  12
ENDBRANCH   8   9
ENDBRANCH   5   8
ENDBRANCH   4   6
ENDBRANCH   2   4
ENDBRANCH   1   2
BRANCH   1  14
ATOM     14  C10 UNL     1      -1.650  -1.884  -0.534  0.00  0.00    +0.000 C 
BRANCH  14  15
ATOM     15  N2  UNL     1      -2.102  -0.567  -0.259  0.00  0.00    +0.000 NA
ATOM     16  H17 UNL     1      -2.303  -0.492   0.767  0.00  0.00    +0.000 HD
BRANCH  15  17
ATOM     17  C11 UNL     1      -3.269  -0.131  -0.967  0.00  0.00    +0.000 C 
ATOM     18  C12 UNL     1      -4.496  -0.943  -0.601  0.00  0.00    +0.000 C 
ATOM     19  C13 UNL     1      -4.920  -0.632   0.840  0.00  0.00    +0.000 C 
ATOM     20  C14 UNL     1      -5.202   0.831   0.993  0.00  0.00    +0.000 C 
ATOM     21  C15 UNL     1      -6.309   1.247   0.052  0.00  0.00    +0.000 C 
ATOM     22  C16 UNL     1      -5.911   0.949  -1.369  0.00  0.00    +0.000 C 
ATOM     23  C17 UNL     1      -4.673   1.759  -1.690  0.00  0.00    +0.000 C 
ATOM     24  C18 UNL     1      -3.562   1.325  -0.768  0.00  0.00    +0.000 C 
ATOM     25  C19 UNL     1      -3.980   1.639   0.649  0.00  0.00    +0.000 C 
ATOM     26  C20 UNL     1      -5.652  -0.530  -1.469  0.00  0.00    +0.000 C 
ENDBRANCH  15  17
ENDBRANCH  14  15
ENDBRANCH   1  14
TORSDOF 9
