REMARK  Name = ./3D_structures\o34_MMV1634387_3D.pdb
REMARK  10 active torsions:
REMARK  status: ('A' for Active; 'I' for Inactive)
REMARK    1  A    between atoms: N1_3  and  C10_15
REMARK    2  A    between atoms: C2_5  and  C3_6
REMARK    3  A    between atoms: C3_6  and  O3_8
REMARK    4  A    between atoms: C10_15  and  C11_16
REMARK    5  A    between atoms: C11_16  and  O4_17
REMARK    6  A    between atoms: O4_17  and  C12_18
REMARK    7  A    between atoms: C15_21  and  C16_22
REMARK    8  A    between atoms: C16_22  and  C17_23
REMARK    9  A    between atoms: C16_22  and  C18_24
REMARK   10  A    between atoms: C16_22  and  C19_25
REMARK                            x       y       z     vdW  Elec       q    Type
REMARK                         _______ _______ _______ _____ _____    ______ ____
ROOT
ATOM      1  O1  UNL     1       3.886  -2.430   2.141  0.00  0.00    +0.000 OA
ATOM      2  C1  UNL     1       3.586  -1.412   1.474  0.00  0.00    +0.000 A 
ATOM      3  N1  UNL     1       2.336  -0.936   1.364  0.00  0.00    +0.000 N 
ATOM      4  N2  UNL     1       2.024   0.120   0.670  0.00  0.00    +0.000 NA
ATOM      5  C2  UNL     1       2.960   0.858  -0.024  0.00  0.00    +0.000 A 
ATOM      6  C4  UNL     1       4.256   0.412   0.055  0.00  0.00    +0.000 A 
ATOM      7  C5  UNL     1       4.589  -0.724   0.802  0.00  0.00    +0.000 A 
ATOM      8  C6  UNL     1       5.900  -1.127   0.841  0.00  0.00    +0.000 A 
ATOM      9  C7  UNL     1       6.933  -0.490   0.193  0.00  0.00    +0.000 A 
ATOM     10  C8  UNL     1       6.608   0.624  -0.541  0.00  0.00    +0.000 A 
ATOM     11  C9  UNL     1       5.278   1.065  -0.603  0.00  0.00    +0.000 A 
ENDROOT
BRANCH   5  12
ATOM     12  C3  UNL     1       2.520   2.014  -0.778  0.00  0.00    +0.000 C 
ATOM     13  O2  UNL     1       3.283   2.745  -1.412  0.00  0.00    +0.000 OA
BRANCH  12  14
ATOM     14  O3  UNL     1       1.163   2.375  -0.835  0.00  0.00    +0.000 OA
ATOM     15  H1  UNL     1       0.911   3.330  -1.116  0.00  0.00    +0.000 HD
ENDBRANCH  12  14
ENDBRANCH   5  12
BRANCH   3  16
ATOM     16  C10 UNL     1       1.280  -1.691   2.045  0.00  0.00    +0.000 C 
BRANCH  16  17
ATOM     17  C11 UNL     1       0.694  -2.710   1.087  0.00  0.00    +0.000 C 
BRANCH  17  18
ATOM     18  O4  UNL     1       0.065  -2.173  -0.019  0.00  0.00    +0.000 OA
BRANCH  18  19
ATOM     19  C12 UNL     1      -1.069  -1.436  -0.129  0.00  0.00    +0.000 A 
ATOM     20  C13 UNL     1      -1.852  -1.128   0.953  0.00  0.00    +0.000 A 
ATOM     21  C14 UNL     1      -3.010  -0.363   0.802  0.00  0.00    +0.000 A 
ATOM     22  C15 UNL     1      -3.400   0.101  -0.418  0.00  0.00    +0.000 A 
ATOM     23  C20 UNL     1      -2.626  -0.200  -1.509  0.00  0.00    +0.000 A 
ATOM     24  C21 UNL     1      -1.464  -0.968  -1.359  0.00  0.00    +0.000 A 
BRANCH  22  25
ATOM     25  C16 UNL     1      -4.627   0.913  -0.615  0.00  0.00    +0.000 C 
ATOM     26  C17 UNL     1      -5.445   1.080   0.629  0.00  0.00    +0.000 C 
ATOM     27  C18 UNL     1      -5.523   0.344  -1.717  0.00  0.00    +0.000 C 
ATOM     28  C19 UNL     1      -4.161   2.301  -1.044  0.00  0.00    +0.000 C 
ENDBRANCH  22  25
ENDBRANCH  18  19
ENDBRANCH  17  18
ENDBRANCH  16  17
ENDBRANCH   3  16
TORSDOF 7
