REMARK  Name = ./3D_structures\o35_MMV1633966_3D.pdb
REMARK  4 active torsions:
REMARK  status: ('A' for Active; 'I' for Inactive)
REMARK    1  A    between atoms: C16_20  and  O1_21
REMARK    2  A    between atoms: O1_21  and  C17_22
REMARK    3  A    between atoms: C17_22  and  C18_23
REMARK    4  A    between atoms: C18_23  and  N3_24
REMARK                            x       y       z     vdW  Elec       q    Type
REMARK                         _______ _______ _______ _____ _____    ______ ____
ROOT
ATOM      1 CL1  UNL     1      -5.704   4.627  -0.497  0.00  0.00    +0.000 Cl
ATOM      2  C1  UNL     1      -4.040   4.131  -0.427  0.00  0.00    +0.000 A 
ATOM      3  C2  UNL     1      -3.752   2.803  -0.307  0.00  0.00    +0.000 A 
ATOM      4  C3  UNL     1      -2.418   2.426  -0.253  0.00  0.00    +0.000 A 
ATOM      5  C4  UNL     1      -1.385   3.331  -0.316  0.00  0.00    +0.000 A 
ATOM      6  N1  UNL     1      -0.227   2.656  -0.239  0.00  0.00    +0.000 N 
ATOM      7  C5  UNL     1      -0.495   1.331  -0.127  0.00  0.00    +0.000 A 
ATOM      8  C6  UNL     1      -1.861   1.171  -0.134  0.00  0.00    +0.000 A 
ATOM      9  C7  UNL     1      -2.416  -0.111  -0.031  0.00  0.00    +0.000 A 
ATOM     10  C8  UNL     1      -1.539  -1.164   0.075  0.00  0.00    +0.000 A 
ATOM     11  C9  UNL     1      -1.755  -2.539   0.192  0.00  0.00    +0.000 A 
ATOM     12  C10 UNL     1      -0.552  -3.209   0.269  0.00  0.00    +0.000 A 
ATOM     13  C11 UNL     1      -0.523  -4.582   0.389  0.00  0.00    +0.000 A 
ATOM     14  C12 UNL     1      -1.689  -5.310   0.435  0.00  0.00    +0.000 A 
ATOM     15  C13 UNL     1      -2.900  -4.653   0.358  0.00  0.00    +0.000 A 
ATOM     16  C14 UNL     1      -2.917  -3.271   0.237  0.00  0.00    +0.000 A 
ATOM     17 CL2  UNL     1      -4.407  -5.540   0.412  0.00  0.00    +0.000 Cl
ATOM     18  N2  UNL     1       0.409  -2.253   0.200  0.00  0.00    +0.000 N 
ATOM     19  C15 UNL     1      -0.168  -1.024   0.084  0.00  0.00    +0.000 A 
ATOM     20  C16 UNL     1       0.372   0.239  -0.018  0.00  0.00    +0.000 A 
ATOM     21  C20 UNL     1      -1.680   4.694  -0.439  0.00  0.00    +0.000 A 
ATOM     22  C21 UNL     1      -3.011   5.055  -0.492  0.00  0.00    +0.000 A 
ATOM     23  H2  UNL     1       0.743   3.070  -0.259  0.00  0.00    +0.000 HD
ATOM     24  H7  UNL     1       1.417  -2.443   0.233  0.00  0.00    +0.000 HD
ENDROOT
BRANCH  20  25
ATOM     25  O1  UNL     1       1.739   0.451  -0.015  0.00  0.00    +0.000 OA
BRANCH  25  26
ATOM     26  C17 UNL     1       2.398   0.663   1.208  0.00  0.00    +0.000 C 
BRANCH  26  27
ATOM     27  C18 UNL     1       3.886   0.876   1.007  0.00  0.00    +0.000 C 
BRANCH  27  28
ATOM     28  N3  UNL     1       4.463  -0.291   0.374  0.00  0.00    +0.000 N 
ATOM     29  N4  UNL     1       4.953  -1.327   1.022  0.00  0.00    +0.000 NA
ATOM     30  N5  UNL     1       5.407  -2.232   0.180  0.00  0.00    +0.000 NA
ATOM     31  N6  UNL     1       5.193  -1.744  -1.032  0.00  0.00    +0.000 NA
ATOM     32  C19 UNL     1       4.607  -0.538  -0.939  0.00  0.00    +0.000 A 
ATOM     33  N7  UNL     1       4.229   0.283  -2.008  0.00  0.00    +0.000 N 
ATOM     34  H12 UNL     1       4.591   1.263  -2.070  0.00  0.00    +0.000 HD
ATOM     35  H13 UNL     1       3.580  -0.044  -2.776  0.00  0.00    +0.000 HD
ENDBRANCH  27  28
ENDBRANCH  26  27
ENDBRANCH  25  26
ENDBRANCH  20  25
TORSDOF 4
