REMARK  Name = ./3D_structures\o36_MMV1505642_3D.pdb
REMARK  4 active torsions:
REMARK  status: ('A' for Active; 'I' for Inactive)
REMARK    1  A    between atoms: C4_5  and  S1_9
REMARK    2  A    between atoms: S1_9  and  N1_12
REMARK    3  A    between atoms: N1_12  and  C7_13
REMARK    4  A    between atoms: C10_16  and  N2_19
REMARK                            x       y       z     vdW  Elec       q    Type
REMARK                         _______ _______ _______ _____ _____    ______ ____
ROOT
ATOM      1  N1  UNL     1      -1.095  -2.265   1.304  0.00  0.00    +0.000 N 
ATOM      2  H4  UNL     1      -1.094  -2.722   2.241  0.00  0.00    +0.000 HD
ENDROOT
BRANCH   1   3
ATOM      3  C7  UNL     1       0.035  -1.507   0.927  0.00  0.00    +0.000 A 
ATOM      4  C8  UNL     1       0.608  -0.616   1.822  0.00  0.00    +0.000 A 
ATOM      5  C9  UNL     1       1.692   0.137   1.515  0.00  0.00    +0.000 A 
ATOM      6  C10 UNL     1       2.296   0.054   0.266  0.00  0.00    +0.000 A 
ATOM      7  C11 UNL     1       1.717  -0.837  -0.618  0.00  0.00    +0.000 A 
ATOM      8  C12 UNL     1       0.615  -1.603  -0.309  0.00  0.00    +0.000 A 
BRANCH   6   9
ATOM      9  N2  UNL     1       3.423   0.823  -0.084  0.00  0.00    +0.000 N 
ATOM     10  C13 UNL     1       3.403   2.097  -0.474  0.00  0.00    +0.000 A 
ATOM     11  C14 UNL     1       4.702   2.535  -0.739  0.00  0.00    +0.000 A 
ATOM     12  C15 UNL     1       5.505   1.453  -0.488  0.00  0.00    +0.000 A 
ATOM     13  C16 UNL     1       4.688   0.402  -0.083  0.00  0.00    +0.000 A 
ENDBRANCH   6   9
ENDBRANCH   1   3
BRANCH   1  14
ATOM     14  S1  UNL     1      -2.473  -2.484   0.318  0.00  0.00    +0.000 S 
ATOM     15  O1  UNL     1      -2.156  -3.089  -1.007  0.00  0.00    +0.000 OA
ATOM     16  O2  UNL     1      -3.518  -3.335   0.991  0.00  0.00    +0.000 OA
BRANCH  14  21
ATOM     17 CL1  UNL     1      -4.832   3.156  -0.987  0.00  0.00    +0.000 Cl
ATOM     18  C1  UNL     1      -4.207   1.577  -0.576  0.00  0.00    +0.000 A 
ATOM     19  C2  UNL     1      -3.237   1.018  -1.390  0.00  0.00    +0.000 A 
ATOM     20  C3  UNL     1      -2.749  -0.211  -1.073  0.00  0.00    +0.000 A 
ATOM     21  C4  UNL     1      -3.182  -0.916   0.024  0.00  0.00    +0.000 A 
ATOM     22  C5  UNL     1      -4.148  -0.351   0.828  0.00  0.00    +0.000 A 
ATOM     23  C6  UNL     1      -4.659   0.892   0.528  0.00  0.00    +0.000 A 
ATOM     24 CL2  UNL     1      -5.879   1.602   1.547  0.00  0.00    +0.000 Cl
ENDBRANCH  14  21
ENDBRANCH   1  14
TORSDOF 4
