REMARK  Name = ./3D_structures\o37_MMV1593542_3D.pdb
REMARK  8 active torsions:
REMARK  status: ('A' for Active; 'I' for Inactive)
REMARK    1  A    between atoms: O1_1  and  C1_2
REMARK    2  A    between atoms: C1_2  and  C2_3
REMARK    3  A    between atoms: C2_3  and  C3_4
REMARK    4  A    between atoms: C3_4  and  C4_5
REMARK    5  A    between atoms: C4_5  and  N1_6
REMARK    6  A    between atoms: C7_10  and  O2_11
REMARK    7  A    between atoms: N4_14  and  C9_15
REMARK    8  A    between atoms: C9_15  and  C10_16
REMARK                            x       y       z     vdW  Elec       q    Type
REMARK                         _______ _______ _______ _____ _____    ______ ____
ROOT
ATOM      1  N1  UNL     1      -2.691   1.025   1.711  0.00  0.00    +0.000 N 
ATOM      2  C5  UNL     1      -3.037   1.456   2.934  0.00  0.00    +0.000 A 
ATOM      3  N2  UNL     1      -1.934   1.680   3.669  0.00  0.00    +0.000 NA
ATOM      4  C6  UNL     1      -0.867   1.394   2.926  0.00  0.00    +0.000 A 
ATOM      5  C7  UNL     1       0.510   1.421   3.114  0.00  0.00    +0.000 C 
ATOM      6  N3  UNL     1       1.262   1.041   2.075  0.00  0.00    +0.000 NA
ATOM      7  C8  UNL     1       0.818   0.643   0.885  0.00  0.00    +0.000 C 
ATOM      8  N4  UNL     1       1.731   0.255  -0.166  0.00  0.00    +0.000 N 
ATOM      9  N5  UNL     1      -0.513   0.609   0.682  0.00  0.00    +0.000 NA
ATOM     10  C16 UNL     1      -1.338   0.983   1.698  0.00  0.00    +0.000 A 
ATOM     11  H12 UNL     1       1.366  -0.055  -1.092  0.00  0.00    +0.000 HD
ENDROOT
BRANCH   5  12
ATOM     12  O2  UNL     1       1.000   1.825   4.324  0.00  0.00    +0.000 OA
ATOM     13  H11 UNL     1       1.608   2.621   4.367  0.00  0.00    +0.000 HD
ENDBRANCH   5  12
BRANCH   1  14
ATOM     14  C4  UNL     1      -3.590   0.664   0.593  0.00  0.00    +0.000 C 
BRANCH  14  15
ATOM     15  C3  UNL     1      -3.903  -0.805   0.715  0.00  0.00    +0.000 C 
BRANCH  15  16
ATOM     16  C2  UNL     1      -4.818  -1.363  -0.307  0.00  0.00    +0.000 C 
BRANCH  16  17
ATOM     17  C1  UNL     1      -4.319  -1.239  -1.708  0.00  0.00    +0.000 C 
BRANCH  17  18
ATOM     18  O1  UNL     1      -4.146   0.076  -2.064  0.00  0.00    +0.000 OA
ATOM     19  H1  UNL     1      -4.294   0.246  -3.019  0.00  0.00    +0.000 HD
ENDBRANCH  17  18
ENDBRANCH  16  17
ENDBRANCH  15  16
ENDBRANCH  14  15
ENDBRANCH   1  14
BRANCH   8  20
ATOM     20  C9  UNL     1       3.128   0.318   0.129  0.00  0.00    +0.000 C 
BRANCH  20  21
ATOM     21  C10 UNL     1       4.005  -0.082  -0.962  0.00  0.00    +0.000 A 
ATOM     22  C11 UNL     1       4.466   0.834  -1.881  0.00  0.00    +0.000 A 
ATOM     23  C12 UNL     1       5.308   0.448  -2.927  0.00  0.00    +0.000 A 
ATOM     24  C13 UNL     1       5.698  -0.860  -3.066  0.00  0.00    +0.000 A 
ATOM     25 CL1  UNL     1       6.757  -1.312  -4.392  0.00  0.00    +0.000 Cl
ATOM     26  C14 UNL     1       5.244  -1.782  -2.154  0.00  0.00    +0.000 A 
ATOM     27 CL2  UNL     1       5.749  -3.449  -2.341  0.00  0.00    +0.000 Cl
ATOM     28  C15 UNL     1       4.408  -1.387  -1.119  0.00  0.00    +0.000 A 
ENDBRANCH  20  21
ENDBRANCH   8  20
TORSDOF 8
