REMARK  Name = ./3D_structures\o38_MMV1593538_3D.pdb
REMARK  4 active torsions:
REMARK  status: ('A' for Active; 'I' for Inactive)
REMARK    1  A    between atoms: N1_1  and  C1_2
REMARK    2  A    between atoms: C1_2  and  C6_10
REMARK    3  A    between atoms: P1_5  and  O2_7
REMARK    4  A    between atoms: C6_10  and  O4_12
REMARK                            x       y       z     vdW  Elec       q    Type
REMARK                         _______ _______ _______ _____ _____    ______ ____
ROOT
ATOM      1  C1  UNL     1       0.979  -0.052  -0.161  0.00  0.00    +0.000 C 
ATOM      2  C2  UNL     1       0.124  -1.145   0.398  0.00  0.00    +0.000 C 
ATOM      3  C3  UNL     1      -1.156  -1.378  -0.330  0.00  0.00    +0.000 C 
ATOM      4  P1  UNL     1      -2.149   0.094   0.142  0.00  0.00    +0.000 P 
ATOM      5  O1  UNL     1      -2.652  -0.136   1.537  0.00  0.00    +0.000 OA
ATOM      6  C4  UNL     1      -1.030   1.493   0.065  0.00  0.00    +0.000 C 
ATOM      7  C5  UNL     1       0.310   1.215  -0.506  0.00  0.00    +0.000 C 
ENDROOT
BRANCH   1   8
ATOM      8  N1  UNL     1       1.627  -0.618  -1.335  0.00  0.00    +0.000 NA
ATOM      9  H1  UNL     1       0.965  -0.564  -2.145  0.00  0.00    +0.000 HD
ATOM     10  H2  UNL     1       2.405   0.056  -1.576  0.00  0.00    +0.000 HD
ENDBRANCH   1   8
BRANCH   4  11
ATOM     11  O2  UNL     1      -3.460   0.231  -0.887  0.00  0.00    +0.000 OA
ATOM     12  H7  UNL     1      -3.929  -0.641  -0.896  0.00  0.00    +0.000 HD
ENDBRANCH   4  11
BRANCH   1  13
ATOM     13  C6  UNL     1       2.061   0.180   0.831  0.00  0.00    +0.000 C 
ATOM     14  O3  UNL     1       1.795   0.677   1.976  0.00  0.00    +0.000 OA
BRANCH  13  15
ATOM     15  O4  UNL     1       3.377  -0.127   0.559  0.00  0.00    +0.000 OA
ATOM     16  H12 UNL     1       4.098  -0.195   1.263  0.00  0.00    +0.000 HD
ENDBRANCH  13  15
ENDBRANCH   1  13
TORSDOF 4
