REMARK  Name = ./3D_structures\o39_MMV002560_3D.pdb
REMARK  17 active torsions:
REMARK  status: ('A' for Active; 'I' for Inactive)
REMARK    1  A    between atoms: C1_1  and  O1_2
REMARK    2  A    between atoms: O1_2  and  N1_3
REMARK    3  A    between atoms: C2_4  and  C3_5
REMARK    4  A    between atoms: C2_4  and  C23_36
REMARK    5  A    between atoms: N2_7  and  C4_8
REMARK    6  A    between atoms: C7_12  and  C17_28
REMARK    7  A    between atoms: C8_13  and  C10_17
REMARK    8  A    between atoms: C10_17  and  O5_19
REMARK    9  A    between atoms: O5_19  and  C11_20
REMARK   10  A    between atoms: C11_20  and  O6_21
REMARK   11  A    between atoms: O6_21  and  C12_22
REMARK   12  A    between atoms: C12_22  and  C13_24
REMARK   13  A    between atoms: C13_24  and  C14_25
REMARK   14  A    between atoms: C13_24  and  C15_26
REMARK   15  A    between atoms: C13_24  and  C16_27
REMARK   16  A    between atoms: C18_29  and  C19_30
REMARK   17  A    between atoms: C21_34  and  C22_35
REMARK                            x       y       z     vdW  Elec       q    Type
REMARK                         _______ _______ _______ _____ _____    ______ ____
ROOT
ATOM      1  C4  UNL     1       1.917  -1.842   0.677  0.00  0.00    +0.000 C 
ATOM      2  C5  UNL     1       0.771  -1.123   1.337  0.00  0.00    +0.000 C 
ATOM      3  S1  UNL     1       1.138   0.420   2.133  0.00  0.00    +0.000 S 
ATOM      4  C6  UNL     1       0.704   1.747   0.908  0.00  0.00    +0.000 C 
ATOM      5  C7  UNL     1      -0.579   1.373   0.260  0.00  0.00    +0.000 C 
ATOM      6  C8  UNL     1      -0.769   0.108  -0.167  0.00  0.00    +0.000 C 
ATOM      7  N3  UNL     1       0.220  -0.900  -0.010  0.00  0.00    +0.000 N 
ATOM      8  C9  UNL     1       1.079  -1.944  -0.520  0.00  0.00    +0.000 C 
ATOM      9  O3  UNL     1       1.040  -2.616  -1.585  0.00  0.00    +0.000 OA
ENDROOT
BRANCH   1  12
ATOM     10  C3  UNL     1       4.365  -1.398   1.004  0.00  0.00    +0.000 C 
ATOM     11  O2  UNL     1       4.409  -2.599   1.478  0.00  0.00    +0.000 OA
ATOM     12  N2  UNL     1       3.089  -0.978   0.581  0.00  0.00    +0.000 N 
ATOM     13  H4  UNL     1       2.996  -0.027   0.193  0.00  0.00    +0.000 HD
BRANCH  10  15
ATOM     14  N1  UNL     1       5.733   0.486   0.555  0.00  0.00    +0.000 NA
ATOM     15  C2  UNL     1       5.608  -0.697   0.987  0.00  0.00    +0.000 C 
BRANCH  15  16
ATOM     16  C23 UNL     1       6.839  -1.400   1.508  0.00  0.00    +0.000 A 
ATOM     17  C24 UNL     1       8.115  -0.706   1.498  0.00  0.00    +0.000 A 
ATOM     18  S3  UNL     1       9.170  -1.969   2.199  0.00  0.00    +0.000 S 
ATOM     19  C25 UNL     1       7.812  -3.256   2.420  0.00  0.00    +0.000 A 
ATOM     20  N5  UNL     1       8.119  -4.502   2.964  0.00  0.00    +0.000 N 
ATOM     21  N6  UNL     1       6.877  -2.584   1.972  0.00  0.00    +0.000 NA
ATOM     22  H27 UNL     1       7.500  -4.922   3.690  0.00  0.00    +0.000 HD
ATOM     23  H28 UNL     1       8.986  -5.006   2.626  0.00  0.00    +0.000 HD
ENDBRANCH  15  16
BRANCH  14  25
ATOM     24  C1  UNL     1       4.947   2.559  -0.302  0.00  0.00    +0.000 C 
ATOM     25  O1  UNL     1       4.719   1.215   0.067  0.00  0.00    +0.000 OA
ENDBRANCH  14  25
ENDBRANCH  10  15
ENDBRANCH   1  12
BRANCH   6  26
ATOM     26  C10 UNL     1      -1.949  -0.282  -0.960  0.00  0.00    +0.000 C 
ATOM     27  O4  UNL     1      -2.127  -1.503  -1.334  0.00  0.00    +0.000 OA
BRANCH  26  28
ATOM     28  O5  UNL     1      -2.956   0.545  -1.389  0.00  0.00    +0.000 OA
BRANCH  28  29
ATOM     29  C11 UNL     1      -4.058   0.124  -2.150  0.00  0.00    +0.000 C 
BRANCH  29  30
ATOM     30  O6  UNL     1      -4.832  -0.872  -1.462  0.00  0.00    +0.000 OA
BRANCH  30  31
ATOM     31  C12 UNL     1      -5.946  -1.396  -2.060  0.00  0.00    +0.000 C 
ATOM     32  O7  UNL     1      -6.248  -0.974  -3.207  0.00  0.00    +0.000 OA
BRANCH  31  33
ATOM     33  C13 UNL     1      -6.816  -2.428  -1.439  0.00  0.00    +0.000 C 
ATOM     34  C14 UNL     1      -7.951  -2.801  -2.356  0.00  0.00    +0.000 C 
ATOM     35  C15 UNL     1      -6.036  -3.645  -1.022  0.00  0.00    +0.000 C 
ATOM     36  C16 UNL     1      -7.411  -1.798  -0.182  0.00  0.00    +0.000 C 
ENDBRANCH  31  33
ENDBRANCH  30  31
ENDBRANCH  29  30
ENDBRANCH  28  29
ENDBRANCH  26  28
ENDBRANCH   6  26
BRANCH   5  37
ATOM     37  C17 UNL     1      -1.692   2.244   0.313  0.00  0.00    +0.000 C 
ATOM     38  C18 UNL     1      -1.754   3.505   0.548  0.00  0.00    +0.000 C 
BRANCH  38  39
ATOM     39  C19 UNL     1      -0.643   4.374   0.792  0.00  0.00    +0.000 A 
ATOM     40  S2  UNL     1      -0.539   5.534   2.193  0.00  0.00    +0.000 S 
ATOM     41  C20 UNL     1       1.026   6.346   1.516  0.00  0.00    +0.000 A 
ATOM     42  N4  UNL     1       1.171   5.748   0.569  0.00  0.00    +0.000 NA
ATOM     43  C21 UNL     1       0.471   4.760   0.052  0.00  0.00    +0.000 A 
ATOM     44  C22 UNL     1       0.784   4.147  -1.294  0.00  0.00    +0.000 C 
ENDBRANCH  38  39
ENDBRANCH   5  37
TORSDOF 12
