REMARK  Name = ./3D_structures\o3_MMV1578565_3D.pdb
REMARK  7 active torsions:
REMARK  status: ('A' for Active; 'I' for Inactive)
REMARK    1  A    between atoms: C1_1  and  S1_2
REMARK    2  A    between atoms: S1_2  and  C2_3
REMARK    3  A    between atoms: C2_3  and  C3_4
REMARK    4  A    between atoms: N1_6  and  C5_7
REMARK    5  A    between atoms: C5_7  and  C6_8
REMARK    6  A    between atoms: C9_12  and  N3_13
REMARK    7  A    between atoms: C13_19  and  O1_20
REMARK                            x       y       z     vdW  Elec       q    Type
REMARK                         _______ _______ _______ _____ _____    ______ ____
ROOT
ATOM      1  C6  UNL     1       1.536   0.263   0.291  0.00  0.00    +0.000 A 
ATOM      2  C7  UNL     1       1.935   0.916  -0.844  0.00  0.00    +0.000 A 
ATOM      3  N2  UNL     1       3.283   0.924  -0.969  0.00  0.00    +0.000 N 
ATOM      4  C8  UNL     1       3.758   0.270   0.097  0.00  0.00    +0.000 A 
ATOM      5  C9  UNL     1       5.060  -0.009   0.462  0.00  0.00    +0.000 A 
ATOM      6  N4  UNL     1       5.250  -0.689   1.595  0.00  0.00    +0.000 NA
ATOM      7  C10 UNL     1       4.232  -1.099   2.370  0.00  0.00    +0.000 A 
ATOM      8  N5  UNL     1       2.964  -0.830   2.019  0.00  0.00    +0.000 NA
ATOM      9  C11 UNL     1       2.723  -0.149   0.889  0.00  0.00    +0.000 A 
ATOM     10  H12 UNL     1       3.876   1.342  -1.723  0.00  0.00    +0.000 HD
ENDROOT
BRANCH   5  11
ATOM     11  N3  UNL     1       6.162   0.399  -0.315  0.00  0.00    +0.000 N 
ATOM     12  H13 UNL     1       6.645   1.291  -0.093  0.00  0.00    +0.000 HD
ATOM     13  H14 UNL     1       6.483  -0.184  -1.094  0.00  0.00    +0.000 HD
ENDBRANCH   5  11
BRANCH   1  14
ATOM     14  C5  UNL     1       0.165   0.034   0.809  0.00  0.00    +0.000 C 
BRANCH  14  17
ATOM     15  C3  UNL     1      -2.888   0.016  -0.870  0.00  0.00    +0.000 C 
ATOM     16  C4  UNL     1      -2.137   0.493   0.333  0.00  0.00    +0.000 C 
ATOM     17  N1  UNL     1      -0.768   0.630  -0.157  0.00  0.00    +0.000 NA
ATOM     18  C12 UNL     1      -0.653  -0.176  -1.356  0.00  0.00    +0.000 C 
ATOM     19  C13 UNL     1      -1.904  -1.073  -1.346  0.00  0.00    +0.000 C 
BRANCH  19  20
ATOM     20  O1  UNL     1      -2.219  -1.553  -2.585  0.00  0.00    +0.000 OA
ATOM     21  H19 UNL     1      -1.862  -2.495  -2.634  0.00  0.00    +0.000 HD
ENDBRANCH  19  20
BRANCH  15  22
ATOM     22  C2  UNL     1      -4.242  -0.535  -0.640  0.00  0.00    +0.000 C 
BRANCH  22  24
ATOM     23  C1  UNL     1      -4.852   1.079   1.800  0.00  0.00    +0.000 C 
ATOM     24  S1  UNL     1      -5.320   0.693   0.103  0.00  0.00    +0.000 S 
ENDBRANCH  22  24
ENDBRANCH  15  22
ENDBRANCH  14  17
ENDBRANCH   1  14
TORSDOF 6
