REMARK  Name = ./3D_structures\o40_MMV002459_3D.pdb
REMARK  16 active torsions:
REMARK  status: ('A' for Active; 'I' for Inactive)
REMARK    1  A    between atoms: N1_1  and  C1_2
REMARK    2  A    between atoms: C1_2  and  C2_3
REMARK    3  A    between atoms: C3_5  and  O2_6
REMARK    4  A    between atoms: O2_6  and  C4_7
REMARK    5  A    between atoms: C5_8  and  N2_9
REMARK    6  A    between atoms: C7_11  and  N3_12
REMARK    7  A    between atoms: C8_13  and  O3_14
REMARK    8  A    between atoms: O3_14  and  C9_15
REMARK    9  A    between atoms: C10_17  and  C11_18
REMARK   10  A    between atoms: C11_18  and  O5_19
REMARK   11  A    between atoms: C12_20  and  O6_21
REMARK   12  A    between atoms: C13_22  and  N4_23
REMARK   13  A    between atoms: C14_24  and  O7_25
REMARK   14  A    between atoms: C15_26  and  O8_27
REMARK   15  A    between atoms: C16_28  and  N5_29
REMARK   16  A    between atoms: C18_31  and  O9_32
REMARK                            x       y       z     vdW  Elec       q    Type
REMARK                         _______ _______ _______ _____ _____    ______ ____
ROOT
ATOM      1  C4  UNL     1       1.284   1.050   0.305  0.00  0.00    +0.000 C 
ATOM      2  C5  UNL     1       0.989   1.483   1.748  0.00  0.00    +0.000 C 
ATOM      3  C6  UNL     1       0.579   0.194   2.453  0.00  0.00    +0.000 C 
ATOM      4  C7  UNL     1      -0.680  -0.320   1.865  0.00  0.00    +0.000 C 
ATOM      5  C8  UNL     1      -1.093   0.268   0.575  0.00  0.00    +0.000 C 
ATOM      6  C15 UNL     1       0.020   0.635  -0.357  0.00  0.00    +0.000 C 
ENDROOT
BRANCH   2   7
ATOM      7  N2  UNL     1      -0.021   2.490   1.816  0.00  0.00    +0.000 NA
ATOM      8  H9  UNL     1       0.046   3.174   1.053  0.00  0.00    +0.000 HD
ATOM      9  H10 UNL     1       0.115   3.018   2.730  0.00  0.00    +0.000 HD
ENDBRANCH   2   7
BRANCH   4  10
ATOM     10  N3  UNL     1      -1.752  -0.093   2.840  0.00  0.00    +0.000 NA
ATOM     11  H14 UNL     1      -2.544   0.405   2.413  0.00  0.00    +0.000 HD
ATOM     12  H15 UNL     1      -1.995  -0.938   3.370  0.00  0.00    +0.000 HD
ENDBRANCH   4  10
BRANCH   6  13
ATOM     13  O8  UNL     1      -0.437   1.653  -1.193  0.00  0.00    +0.000 OA
ATOM     14  H30 UNL     1      -0.443   1.394  -2.149  0.00  0.00    +0.000 HD
ENDBRANCH   6  13
BRANCH   1  15
ATOM     15  O2  UNL     1       2.098  -0.086   0.424  0.00  0.00    +0.000 OA
BRANCH  15  18
ATOM     16  C2  UNL     1       5.591   0.075   0.479  0.00  0.00    +0.000 C 
ATOM     17  O1  UNL     1       4.291  -0.131   0.860  0.00  0.00    +0.000 OA
ATOM     18  C3  UNL     1       3.353   0.101  -0.126  0.00  0.00    +0.000 C 
ATOM     19  C16 UNL     1       3.534  -0.948  -1.203  0.00  0.00    +0.000 C 
ATOM     20  C17 UNL     1       4.897  -1.601  -1.143  0.00  0.00    +0.000 C 
ATOM     21  C18 UNL     1       5.974  -0.625  -0.800  0.00  0.00    +0.000 C 
BRANCH  19  22
ATOM     22  N5  UNL     1       2.553  -2.007  -1.048  0.00  0.00    +0.000 NA
ATOM     23  H32 UNL     1       2.963  -2.912  -0.792  0.00  0.00    +0.000 HD
ATOM     24  H33 UNL     1       1.900  -2.055  -1.861  0.00  0.00    +0.000 HD
ENDBRANCH  19  22
BRANCH  21  25
ATOM     25  O9  UNL     1       7.177  -1.300  -0.673  0.00  0.00    +0.000 OA
ATOM     26  H37 UNL     1       7.036  -2.277  -0.710  0.00  0.00    +0.000 HD
ENDBRANCH  21  25
BRANCH  16  27
ATOM     27  C1  UNL     1       5.931   1.540   0.314  0.00  0.00    +0.000 C 
BRANCH  27  28
ATOM     28  N1  UNL     1       7.312   1.705  -0.089  0.00  0.00    +0.000 NA
ATOM     29  H1  UNL     1       7.940   1.739   0.736  0.00  0.00    +0.000 HD
ATOM     30  H2  UNL     1       7.394   2.626  -0.575  0.00  0.00    +0.000 HD
ENDBRANCH  27  28
ENDBRANCH  16  27
ENDBRANCH  15  18
ENDBRANCH   1  15
BRANCH   5  31
ATOM     31  O3  UNL     1      -1.908  -0.651  -0.088  0.00  0.00    +0.000 OA
BRANCH  31  32
ATOM     32  C9  UNL     1      -3.190  -0.167  -0.324  0.00  0.00    +0.000 C 
ATOM     33  O4  UNL     1      -3.447  -0.171  -1.672  0.00  0.00    +0.000 OA
ATOM     34  C10 UNL     1      -4.728   0.234  -1.946  0.00  0.00    +0.000 C 
ATOM     35  C12 UNL     1      -5.715  -0.828  -1.504  0.00  0.00    +0.000 C 
ATOM     36  C13 UNL     1      -5.148  -1.740  -0.461  0.00  0.00    +0.000 C 
ATOM     37  C14 UNL     1      -4.147  -1.064   0.428  0.00  0.00    +0.000 C 
BRANCH  36  38
ATOM     38  N4  UNL     1      -6.259  -2.200   0.370  0.00  0.00    +0.000 NA
ATOM     39  H25 UNL     1      -6.083  -3.175   0.673  0.00  0.00    +0.000 HD
ATOM     40  H26 UNL     1      -6.365  -1.583   1.217  0.00  0.00    +0.000 HD
ENDBRANCH  36  38
BRANCH  35  41
ATOM     41  O6  UNL     1      -6.107  -1.548  -2.623  0.00  0.00    +0.000 OA
ATOM     42  H23 UNL     1      -6.229  -0.974  -3.419  0.00  0.00    +0.000 HD
ENDBRANCH  35  41
BRANCH  37  43
ATOM     43  O7  UNL     1      -3.465  -2.094   1.114  0.00  0.00    +0.000 OA
ATOM     44  H28 UNL     1      -2.601  -2.291   0.686  0.00  0.00    +0.000 HD
ENDBRANCH  37  43
BRANCH  34  45
ATOM     45  C11 UNL     1      -5.135   1.522  -1.266  0.00  0.00    +0.000 C 
BRANCH  45  46
ATOM     46  O5  UNL     1      -6.468   1.772  -1.669  0.00  0.00    +0.000 OA
ATOM     47  H21 UNL     1      -7.020   2.075  -0.916  0.00  0.00    +0.000 HD
ENDBRANCH  45  46
ENDBRANCH  34  45
ENDBRANCH  31  32
ENDBRANCH   5  31
TORSDOF 16
