REMARK  Name = ./3D_structures\o41_MMV637945_3D.pdb
REMARK  4 active torsions:
REMARK  status: ('A' for Active; 'I' for Inactive)
REMARK    1  A    between atoms: C1_1  and  C2_2
REMARK    2  A    between atoms: C2_2  and  C3_3
REMARK    3  A    between atoms: C4_4  and  C8_13
REMARK    4  A    between atoms: C8_13  and  O5_15
REMARK                            x       y       z     vdW  Elec       q    Type
REMARK                         _______ _______ _______ _____ _____    ______ ____
ROOT
ATOM      1  C1  UNL     1      -2.033  -0.021  -1.122  0.00  0.00    +0.000 C 
ATOM      2  C2  UNL     1      -1.019  -0.510  -0.138  0.00  0.00    +0.000 C 
ATOM      3  C3  UNL     1      -1.599  -1.618   0.673  0.00  0.00    +0.000 C 
ATOM      4  C4  UNL     1      -0.447   0.585   0.719  0.00  0.00    +0.000 C 
ATOM      5  N1  UNL     1       0.944   0.324   0.926  0.00  0.00    +0.000 N 
ATOM      6  C5  UNL     1       1.570   0.147  -0.394  0.00  0.00    +0.000 C 
ATOM      7  C6  UNL     1       2.811  -0.427   0.231  0.00  0.00    +0.000 C 
ATOM      8  C7  UNL     1       2.233   0.097   1.486  0.00  0.00    +0.000 C 
ATOM      9  O1  UNL     1       2.737   0.267   2.625  0.00  0.00    +0.000 OA
ATOM     10  S1  UNL     1       0.432  -1.054  -1.054  0.00  0.00    +0.000 S 
ATOM     11  O2  UNL     1       0.863  -2.410  -0.650  0.00  0.00    +0.000 OA
ATOM     12  O3  UNL     1       0.236  -0.889  -2.523  0.00  0.00    +0.000 OA
ENDROOT
BRANCH   4  13
ATOM     13  C8  UNL     1      -0.683   1.937   0.197  0.00  0.00    +0.000 C 
ATOM     14  O4  UNL     1      -1.805   2.409  -0.070  0.00  0.00    +0.000 OA
BRANCH  13  15
ATOM     15  O5  UNL     1       0.415   2.758  -0.018  0.00  0.00    +0.000 OA
ATOM     16  H11 UNL     1       0.372   3.767   0.009  0.00  0.00    +0.000 HD
ENDBRANCH  13  15
ENDBRANCH   4  13
TORSDOF 2
