REMARK  Name = ./3D_structures\o42_MMV1580854_3D.pdb
REMARK  5 active torsions:
REMARK  status: ('A' for Active; 'I' for Inactive)
REMARK    1  A    between atoms: C1_1  and  C2_2
REMARK    2  A    between atoms: C2_2  and  C3_3
REMARK    3  A    between atoms: C5_5  and  O1_6
REMARK    4  A    between atoms: C6_7  and  O2_8
REMARK    5  A    between atoms: O2_8  and  C7_9
REMARK                            x       y       z     vdW  Elec       q    Type
REMARK                         _______ _______ _______ _____ _____    ______ ____
ROOT
ATOM      1  C3  UNL     1       2.552  -0.255  -0.292  0.00  0.00    +0.000 A 
ATOM      2  C4  UNL     1       2.051  -1.526  -0.471  0.00  0.00    +0.000 A 
ATOM      3  C5  UNL     1       0.730  -1.837  -0.619  0.00  0.00    +0.000 A 
ATOM      4  C6  UNL     1      -0.188  -0.777  -0.586  0.00  0.00    +0.000 A 
ATOM      5  C12 UNL     1       0.286   0.504  -0.408  0.00  0.00    +0.000 A 
ATOM      6  C13 UNL     1       1.638   0.776  -0.262  0.00  0.00    +0.000 A 
ATOM      7  F1  UNL     1       2.112   2.034  -0.086  0.00  0.00    +0.000 F 
ENDROOT
BRANCH   1   9
ATOM      8  C1  UNL     1       4.353   0.327   1.297  0.00  0.00    +0.000 C 
ATOM      9  C2  UNL     1       4.004   0.034  -0.136  0.00  0.00    +0.000 C 
ENDBRANCH   1   9
BRANCH   3  10
ATOM     10  O1  UNL     1       0.292  -3.153  -0.797  0.00  0.00    +0.000 OA
ATOM     11  H7  UNL     1      -0.697  -3.339  -0.903  0.00  0.00    +0.000 HD
ENDBRANCH   3  10
BRANCH   4  12
ATOM     12  O2  UNL     1      -1.530  -1.099  -0.734  0.00  0.00    +0.000 OA
BRANCH  12  13
ATOM     13  C7  UNL     1      -2.555  -0.184  -0.681  0.00  0.00    +0.000 A 
ATOM     14  C8  UNL     1      -3.373   0.036  -1.789  0.00  0.00    +0.000 A 
ATOM     15  C9  UNL     1      -4.386   0.961  -1.686  0.00  0.00    +0.000 A 
ATOM     16  C10 UNL     1      -4.550   1.636  -0.482  0.00  0.00    +0.000 A 
ATOM     17  N1  UNL     1      -3.738   1.393   0.562  0.00  0.00    +0.000 NA
ATOM     18  C11 UNL     1      -2.745   0.505   0.504  0.00  0.00    +0.000 A 
ATOM     19  N2  UNL     1      -1.924   0.271   1.640  0.00  0.00    +0.000 N 
ATOM     20  H11 UNL     1      -1.894   0.967   2.420  0.00  0.00    +0.000 HD
ATOM     21  H12 UNL     1      -1.330  -0.573   1.750  0.00  0.00    +0.000 HD
ENDBRANCH  12  13
ENDBRANCH   4  12
TORSDOF 4
