REMARK  Name = ./3D_structures\o43_MMV1580851_3D.pdb
REMARK  10 active torsions:
REMARK  status: ('A' for Active; 'I' for Inactive)
REMARK    1  A    between atoms: C1_1  and  C2_2
REMARK    2  A    between atoms: C2_2  and  C3_3
REMARK    3  A    between atoms: C3_3  and  C4_4
REMARK    4  A    between atoms: C4_4  and  C5_5
REMARK    5  A    between atoms: C5_5  and  O1_6
REMARK    6  A    between atoms: O1_6  and  C6_7
REMARK    7  A    between atoms: C9_10  and  C10_11
REMARK    8  A    between atoms: C13_15  and  O3_16
REMARK    9  A    between atoms: C14_17  and  O4_18
REMARK   10  A    between atoms: C19_24  and  O6_25
REMARK                            x       y       z     vdW  Elec       q    Type
REMARK                         _______ _______ _______ _____ _____    ______ ____
ROOT
ATOM      1  C10 UNL     1      -2.004   1.237   1.398  0.00  0.00    +0.000 C 
ATOM      2  C11 UNL     1      -3.233   0.876   1.077  0.00  0.00    +0.000 C 
ATOM      3  O2  UNL     1      -3.514  -0.070   0.130  0.00  0.00    +0.000 OA
ATOM      4  C12 UNL     1      -4.893  -0.196   0.051  0.00  0.00    +0.000 A 
ATOM      5  C13 UNL     1      -5.693  -1.018  -0.752  0.00  0.00    +0.000 A 
ATOM      6  C14 UNL     1      -7.066  -0.953  -0.637  0.00  0.00    +0.000 A 
ATOM      7  C15 UNL     1      -7.707  -0.102   0.249  0.00  0.00    +0.000 A 
ATOM      8  C16 UNL     1      -6.914   0.705   1.037  0.00  0.00    +0.000 A 
ATOM      9  C17 UNL     1      -5.539   0.646   0.927  0.00  0.00    +0.000 A 
ATOM     10  C18 UNL     1      -4.484   1.377   1.630  0.00  0.00    +0.000 C 
ATOM     11  O5  UNL     1      -4.653   2.245   2.515  0.00  0.00    +0.000 OA
ENDROOT
BRANCH   1  15
ATOM     12  C6  UNL     1       1.504  -0.343  -0.491  0.00  0.00    +0.000 A 
ATOM     13  C7  UNL     1       0.410  -1.153  -0.141  0.00  0.00    +0.000 A 
ATOM     14  C8  UNL     1      -0.718  -0.673   0.465  0.00  0.00    +0.000 A 
ATOM     15  C9  UNL     1      -0.830   0.652   0.765  0.00  0.00    +0.000 A 
ATOM     16  C19 UNL     1       0.220   1.477   0.438  0.00  0.00    +0.000 A 
ATOM     17  C20 UNL     1       1.373   0.998  -0.180  0.00  0.00    +0.000 A 
BRANCH  16  18
ATOM     18  O6  UNL     1       0.164   2.852   0.720  0.00  0.00    +0.000 OA
ATOM     19  H19 UNL     1      -0.644   3.258   1.165  0.00  0.00    +0.000 HD
ENDBRANCH  16  18
BRANCH  12  20
ATOM     20  O1  UNL     1       2.561  -0.922  -1.085  0.00  0.00    +0.000 OA
BRANCH  20  21
ATOM     21  C5  UNL     1       3.776  -0.536  -1.556  0.00  0.00    +0.000 C 
BRANCH  21  22
ATOM     22  C4  UNL     1       4.667   0.010  -0.477  0.00  0.00    +0.000 C 
BRANCH  22  23
ATOM     23  C3  UNL     1       6.014   0.401  -1.104  0.00  0.00    +0.000 C 
BRANCH  23  25
ATOM     24  C1  UNL     1       7.216  -0.025   1.041  0.00  0.00    +0.000 C 
ATOM     25  C2  UNL     1       6.935   0.955  -0.051  0.00  0.00    +0.000 C 
ENDBRANCH  23  25
ENDBRANCH  22  23
ENDBRANCH  21  22
ENDBRANCH  20  21
ENDBRANCH  12  20
ENDBRANCH   1  15
BRANCH   5  26
ATOM     26  O3  UNL     1      -5.052  -1.856  -1.625  0.00  0.00    +0.000 OA
ATOM     27  H15 UNL     1      -5.550  -2.481  -2.242  0.00  0.00    +0.000 HD
ENDBRANCH   5  26
BRANCH   6  28
ATOM     28  O4  UNL     1      -7.882  -1.753  -1.419  0.00  0.00    +0.000 OA
ATOM     29  H16 UNL     1      -7.571  -2.409  -2.093  0.00  0.00    +0.000 HD
ENDBRANCH   6  28
TORSDOF 9
