REMARK  Name = ./3D_structures\o44_MMV1579849_3D.pdb
REMARK  59 active torsions:
REMARK  status: ('A' for Active; 'I' for Inactive)
REMARK    1  A    between atoms: C1_1  and  C2_2
REMARK    2  A    between atoms: C2_2  and  N1_3
REMARK    3  A    between atoms: C2_2  and  C3_4
REMARK    4  A    between atoms: N2_6  and  C4_7
REMARK    5  A    between atoms: C4_7  and  C5_8
REMARK    6  A    between atoms: C4_7  and  C9_13
REMARK    7  A    between atoms: C5_8  and  C6_9
REMARK    8  A    between atoms: C6_9  and  C7_10
REMARK    9  A    between atoms: C7_10  and  C8_11
REMARK   10  A    between atoms: C8_11  and  N3_12
REMARK   11  A    between atoms: N4_15  and  C10_16
REMARK   12  A    between atoms: C10_16  and  C11_17
REMARK   13  A    between atoms: C10_16  and  C15_24
REMARK   14  A    between atoms: C11_17  and  C12_18
REMARK   15  A    between atoms: C12_18  and  C13_19
REMARK   16  A    between atoms: C13_19  and  N5_20
REMARK   17  A    between atoms: N8_26  and  C16_27
REMARK   18  A    between atoms: C16_27  and  C17_28
REMARK   19  A    between atoms: C16_27  and  C21_34
REMARK   20  A    between atoms: C17_28  and  C18_29
REMARK   21  A    between atoms: N11_36  and  C22_37
REMARK   22  A    between atoms: C22_37  and  C23_38
REMARK   23  A    between atoms: C22_37  and  C27_44
REMARK   24  A    between atoms: C23_38  and  C24_39
REMARK   25  A    between atoms: N14_46  and  C28_47
REMARK   26  A    between atoms: C28_47  and  C29_48
REMARK   27  A    between atoms: N15_50  and  C30_51
REMARK   28  A    between atoms: C30_51  and  C31_52
REMARK   29  A    between atoms: C30_51  and  C38_60
REMARK   30  A    between atoms: C31_52  and  C32_53
REMARK   31  A    between atoms: C35_56  and  O7_57
REMARK   32  A    between atoms: N16_62  and  C39_63
REMARK   33  A    between atoms: C39_63  and  C40_64
REMARK   34  A    between atoms: C39_63  and  C44_69
REMARK   35  A    between atoms: C40_64  and  C41_65
REMARK   36  A    between atoms: C41_65  and  C42_66
REMARK   37  A    between atoms: C42_66  and  C43_67
REMARK   38  A    between atoms: C43_67  and  N17_68
REMARK   39  A    between atoms: N18_71  and  C45_72
REMARK   40  A    between atoms: C45_72  and  C46_73
REMARK   41  A    between atoms: C45_72  and  C50_80
REMARK   42  A    between atoms: C46_73  and  C47_74
REMARK   43  A    between atoms: C47_74  and  C48_75
REMARK   44  A    between atoms: C48_75  and  N19_76
REMARK   45  A    between atoms: N22_82  and  C51_83
REMARK   46  A    between atoms: C51_83  and  C52_84
REMARK   47  A    between atoms: C51_83  and  C56_89
REMARK   48  A    between atoms: C52_84  and  C53_85
REMARK   49  A    between atoms: C53_85  and  C54_86
REMARK   50  A    between atoms: C54_86  and  C55_87
REMARK   51  A    between atoms: C55_87  and  N23_88
REMARK   52  A    between atoms: N24_91  and  C57_92
REMARK   53  A    between atoms: C57_92  and  C58_93
REMARK   54  A    between atoms: C57_92  and  C65_100
REMARK   55  A    between atoms: C58_93  and  C59_94
REMARK   56  A    between atoms: N25_102  and  C66_103
REMARK   57  A    between atoms: C66_103  and  C67_104
REMARK   58  A    between atoms: C66_103  and  C71_110
REMARK   59  A    between atoms: C67_104  and  C68_105
REMARK                            x       y       z     vdW  Elec       q    Type
REMARK                         _______ _______ _______ _____ _____    ______ ____
ROOT
ATOM      1  C30 UNL     1       0.108   0.205   0.767  0.00  0.00    +0.000 C 
ENDROOT
BRANCH   1   4
ATOM      2  C29 UNL     1       2.168  -0.091   2.118  0.00  0.00    +0.000 C 
ATOM      3  O6  UNL     1       2.823   0.278   1.104  0.00  0.00    +0.000 OA
ATOM      4  N15 UNL     1       0.765  -0.118   2.102  0.00  0.00    +0.000 N 
ATOM      5  H48 UNL     1       0.189  -0.336   2.920  0.00  0.00    +0.000 HD
BRANCH   2   6
ATOM      6  C28 UNL     1       2.840  -0.556   3.380  0.00  0.00    +0.000 C 
BRANCH   6   9
ATOM      7  C27 UNL     1       4.704  -1.330   1.970  0.00  0.00    +0.000 C 
ATOM      8  O5  UNL     1       3.899  -1.852   1.158  0.00  0.00    +0.000 OA
ATOM      9  N14 UNL     1       4.291  -0.637   3.101  0.00  0.00    +0.000 N 
ATOM     10  H45 UNL     1       4.934  -0.186   3.744  0.00  0.00    +0.000 HD
BRANCH   7  11
ATOM     11  C22 UNL     1       6.206  -1.493   1.633  0.00  0.00    +0.000 C 
BRANCH  11  14
ATOM     12  C21 UNL     1       7.300   0.101   0.091  0.00  0.00    +0.000 C 
ATOM     13  O4  UNL     1       8.059   0.278   1.095  0.00  0.00    +0.000 OA
ATOM     14  N11 UNL     1       6.308  -0.910   0.285  0.00  0.00    +0.000 N 
ATOM     15  H38 UNL     1       5.711  -1.200  -0.477  0.00  0.00    +0.000 HD
BRANCH  12  16
ATOM     16  C16 UNL     1       7.484   0.926  -1.123  0.00  0.00    +0.000 C 
BRANCH  16  19
ATOM     17  C15 UNL     1       9.066   2.585  -0.027  0.00  0.00    +0.000 C 
ATOM     18  O3  UNL     1       8.329   2.656   1.036  0.00  0.00    +0.000 OA
ATOM     19  N8  UNL     1       8.660   1.732  -1.080  0.00  0.00    +0.000 N 
ATOM     20  H31 UNL     1       9.299   1.697  -1.908  0.00  0.00    +0.000 HD
BRANCH  17  21
ATOM     21  C10 UNL     1      10.298   3.394  -0.050  0.00  0.00    +0.000 C 
BRANCH  21  24
ATOM     22  C9  UNL     1      12.049   1.837   1.026  0.00  0.00    +0.000 C 
ATOM     23  O2  UNL     1      11.533   1.885   2.144  0.00  0.00    +0.000 OA
ATOM     24  N4  UNL     1      11.460   2.558  -0.021  0.00  0.00    +0.000 N 
ATOM     25  H19 UNL     1      11.964   2.484  -0.976  0.00  0.00    +0.000 HD
BRANCH  22  26
ATOM     26  C4  UNL     1      13.266   1.045   0.712  0.00  0.00    +0.000 C 
BRANCH  26  29
ATOM     27  C3  UNL     1      13.017  -1.437   0.873  0.00  0.00    +0.000 C 
ATOM     28  O1  UNL     1      12.610  -1.384  -0.331  0.00  0.00    +0.000 OA
ATOM     29  N2  UNL     1      13.362  -0.184   1.473  0.00  0.00    +0.000 N 
ATOM     30  H7  UNL     1      13.682  -0.166   2.455  0.00  0.00    +0.000 HD
BRANCH  27  32
ATOM     31  C1  UNL     1      13.447  -3.804   0.568  0.00  0.00    +0.000 C 
ATOM     32  C2  UNL     1      13.110  -2.740   1.568  0.00  0.00    +0.000 C 
BRANCH  32  33
ATOM     33  N1  UNL     1      14.183  -2.648   2.552  0.00  0.00    +0.000 NA
ATOM     34  H5  UNL     1      14.476  -3.606   2.866  0.00  0.00    +0.000 HD
ATOM     35  H6  UNL     1      14.999  -2.105   2.167  0.00  0.00    +0.000 HD
ENDBRANCH  32  33
ENDBRANCH  27  32
ENDBRANCH  26  29
BRANCH  26  36
ATOM     36  C5  UNL     1      14.491   1.885   1.025  0.00  0.00    +0.000 C 
BRANCH  36  37
ATOM     37  C6  UNL     1      15.690   1.077   0.612  0.00  0.00    +0.000 C 
BRANCH  37  38
ATOM     38  C7  UNL     1      16.956   1.838   0.953  0.00  0.00    +0.000 C 
BRANCH  38  39
ATOM     39  C8  UNL     1      18.175   0.998   0.533  0.00  0.00    +0.000 C 
BRANCH  39  40
ATOM     40  N3  UNL     1      18.141  -0.282   1.229  0.00  0.00    +0.000 NA
ATOM     41  H17 UNL     1      17.514  -0.944   0.680  0.00  0.00    +0.000 HD
ATOM     42  H18 UNL     1      17.670  -0.136   2.165  0.00  0.00    +0.000 HD
ENDBRANCH  39  40
ENDBRANCH  38  39
ENDBRANCH  37  38
ENDBRANCH  36  37
ENDBRANCH  26  36
ENDBRANCH  22  26
ENDBRANCH  21  24
BRANCH  21  43
ATOM     43  C11 UNL     1      10.391   4.452  -1.083  0.00  0.00    +0.000 C 
BRANCH  43  44
ATOM     44  C12 UNL     1      11.576   5.370  -0.803  0.00  0.00    +0.000 C 
BRANCH  44  45
ATOM     45  C13 UNL     1      11.727   6.473  -1.811  0.00  0.00    +0.000 C 
BRANCH  45  46
ATOM     46  N5  UNL     1      12.833   7.329  -1.496  0.00  0.00    +0.000 N 
ATOM     47  C14 UNL     1      14.169   6.882  -1.571  0.00  0.00    +0.000 C 
ATOM     48  N6  UNL     1      14.393   5.794  -2.269  0.00  0.00    +0.000 NA
ATOM     49  N7  UNL     1      15.240   7.559  -0.933  0.00  0.00    +0.000 N 
ATOM     50  H27 UNL     1      12.665   8.326  -1.200  0.00  0.00    +0.000 HD
ATOM     51  H28 UNL     1      15.407   5.475  -2.310  0.00  0.00    +0.000 HD
ATOM     52  H29 UNL     1      15.221   8.579  -0.790  0.00  0.00    +0.000 HD
ATOM     53  H30 UNL     1      16.056   7.012  -0.606  0.00  0.00    +0.000 HD
ENDBRANCH  45  46
ENDBRANCH  44  45
ENDBRANCH  43  44
ENDBRANCH  21  43
ENDBRANCH  17  21
ENDBRANCH  16  19
BRANCH  16  54
ATOM     54  C17 UNL     1       7.300   0.214  -2.379  0.00  0.00    +0.000 C 
BRANCH  54  55
ATOM     55  C18 UNL     1       8.429  -0.695  -2.680  0.00  0.00    +0.000 A 
ATOM     56  C19 UNL     1       9.566  -0.419  -3.390  0.00  0.00    +0.000 A 
ATOM     57  N9  UNL     1      10.373  -1.507  -3.434  0.00  0.00    +0.000 N 
ATOM     58  C20 UNL     1       9.731  -2.469  -2.743  0.00  0.00    +0.000 A 
ATOM     59  N10 UNL     1       8.565  -1.976  -2.293  0.00  0.00    +0.000 NA
ATOM     60  H36 UNL     1      11.290  -1.535  -3.915  0.00  0.00    +0.000 HD
ENDBRANCH  54  55
ENDBRANCH  16  54
ENDBRANCH  12  16
ENDBRANCH  11  14
BRANCH  11  61
ATOM     61  C23 UNL     1       6.424  -2.963   1.713  0.00  0.00    +0.000 C 
BRANCH  61  62
ATOM     62  C24 UNL     1       7.664  -3.518   1.276  0.00  0.00    +0.000 A 
ATOM     63  C25 UNL     1       7.937  -4.023   0.001  0.00  0.00    +0.000 A 
ATOM     64  N12 UNL     1       9.182  -4.512  -0.004  0.00  0.00    +0.000 N 
ATOM     65  C26 UNL     1       9.728  -4.348   1.213  0.00  0.00    +0.000 A 
ATOM     66  N13 UNL     1       8.822  -3.753   1.972  0.00  0.00    +0.000 NA
ATOM     67  H43 UNL     1       9.682  -4.965  -0.819  0.00  0.00    +0.000 HD
ENDBRANCH  61  62
ENDBRANCH  11  61
ENDBRANCH   7  11
ENDBRANCH   6   9
ENDBRANCH   2   6
ENDBRANCH   1   4
BRANCH   1  68
ATOM     68  C38 UNL     1      -1.175   0.774   1.105  0.00  0.00    +0.000 C 
ATOM     69  O8  UNL     1      -1.317   1.383   2.222  0.00  0.00    +0.000 OA
ATOM     70  N16 UNL     1      -2.291   0.688   0.266  0.00  0.00    +0.000 N 
ATOM     71  H57 UNL     1      -2.253   0.253  -0.687  0.00  0.00    +0.000 HD
BRANCH  70  72
ATOM     72  C39 UNL     1      -3.598   1.272   0.687  0.00  0.00    +0.000 C 
BRANCH  72  73
ATOM     73  C44 UNL     1      -4.454   0.759  -0.444  0.00  0.00    +0.000 C 
ATOM     74  O9  UNL     1      -4.045   0.990  -1.650  0.00  0.00    +0.000 OA
ATOM     75  N18 UNL     1      -5.614   0.044  -0.268  0.00  0.00    +0.000 N 
ATOM     76  H69 UNL     1      -6.070  -0.221   0.626  0.00  0.00    +0.000 HD
BRANCH  75  77
ATOM     77  C45 UNL     1      -6.312  -0.452  -1.460  0.00  0.00    +0.000 C 
BRANCH  77  78
ATOM     78  C50 UNL     1      -7.689  -0.863  -1.223  0.00  0.00    +0.000 C 
ATOM     79  O10 UNL     1      -8.206  -0.810  -0.105  0.00  0.00    +0.000 OA
ATOM     80  N22 UNL     1      -8.459  -1.353  -2.331  0.00  0.00    +0.000 N 
ATOM     81  H81 UNL     1      -8.024  -1.343  -3.264  0.00  0.00    +0.000 HD
BRANCH  80  82
ATOM     82  C51 UNL     1      -9.815  -1.849  -2.107  0.00  0.00    +0.000 C 
BRANCH  82  83
ATOM     83  C56 UNL     1     -10.837  -0.834  -2.359  0.00  0.00    +0.000 C 
ATOM     84  O11 UNL     1     -10.887  -0.325  -3.538  0.00  0.00    +0.000 OA
ATOM     85  N24 UNL     1     -11.761  -0.356  -1.431  0.00  0.00    +0.000 N 
ATOM     86  H93 UNL     1     -11.613  -0.709  -0.424  0.00  0.00    +0.000 HD
BRANCH  85  87
ATOM     87  C57 UNL     1     -12.840   0.607  -1.657  0.00  0.00    +0.000 C 
BRANCH  87  88
ATOM     88  C65 UNL     1     -13.597   0.706  -0.444  0.00  0.00    +0.000 C 
ATOM     89  O12 UNL     1     -13.114   0.114   0.594  0.00  0.00    +0.000 OA
ATOM     90  N25 UNL     1     -14.822   1.365  -0.192  0.00  0.00    +0.000 N 
ATOM     91  HA2 UNL     1     -15.285   1.832  -0.977  0.00  0.00    +0.000 HD
BRANCH  90  92
ATOM     92  C66 UNL     1     -15.463   1.395   1.090  0.00  0.00    +0.000 C 
BRANCH  92  93
ATOM     93  C71 UNL     1     -16.694   0.583   1.195  0.00  0.00    +0.000 C 
ATOM     94  O13 UNL     1     -17.179   0.009   0.229  0.00  0.00    +0.000 OA
ATOM     95  N28 UNL     1     -17.280   0.503   2.485  0.00  0.00    +0.000 N 
ATOM     96  HA9 UNL     1     -16.890  -0.293   3.093  0.00  0.00    +0.000 HD
ATOM     97  HB0 UNL     1     -17.998   1.093   2.904  0.00  0.00    +0.000 HD
ENDBRANCH  92  93
BRANCH  92  98
ATOM     98  C67 UNL     1     -15.767   2.799   1.559  0.00  0.00    +0.000 C 
BRANCH  98  99
ATOM     99  C68 UNL     1     -14.515   3.552   1.745  0.00  0.00    +0.000 A 
ATOM    100  C69 UNL     1     -14.501   4.895   2.088  0.00  0.00    +0.000 A 
ATOM    101  N26 UNL     1     -13.201   5.281   2.216  0.00  0.00    +0.000 N 
ATOM    102  C70 UNL     1     -12.466   4.195   1.953  0.00  0.00    +0.000 A 
ATOM    103  N27 UNL     1     -13.225   3.132   1.665  0.00  0.00    +0.000 NA
ATOM    104  HA7 UNL     1     -12.845   6.222   2.466  0.00  0.00    +0.000 HD
ENDBRANCH  98  99
ENDBRANCH  92  98
ENDBRANCH  90  92
ENDBRANCH  87  88
BRANCH  87 105
ATOM    105  C58 UNL     1     -12.266   1.895  -2.235  0.00  0.00    +0.000 C 
BRANCH 105 106
ATOM    106  C59 UNL     1     -13.357   2.865  -2.442  0.00  0.00    +0.000 A 
ATOM    107  C60 UNL     1     -13.602   3.938  -1.636  0.00  0.00    +0.000 A 
ATOM    108  C61 UNL     1     -14.676   4.773  -1.821  0.00  0.00    +0.000 A 
ATOM    109  C62 UNL     1     -15.572   4.566  -2.848  0.00  0.00    +0.000 A 
ATOM    110  C63 UNL     1     -15.331   3.481  -3.672  0.00  0.00    +0.000 A 
ATOM    111  C64 UNL     1     -14.248   2.628  -3.495  0.00  0.00    +0.000 A 
ENDBRANCH 105 106
ENDBRANCH  87 105
ENDBRANCH  85  87
ENDBRANCH  82  83
BRANCH  82 112
ATOM    112  C52 UNL     1      -9.960  -2.828  -1.021  0.00  0.00    +0.000 C 
BRANCH 112 113
ATOM    113  C53 UNL     1     -11.340  -3.413  -0.955  0.00  0.00    +0.000 C 
BRANCH 113 114
ATOM    114  C54 UNL     1     -11.428  -4.469   0.148  0.00  0.00    +0.000 C 
BRANCH 114 115
ATOM    115  C55 UNL     1     -12.833  -5.004   0.107  0.00  0.00    +0.000 C 
BRANCH 115 116
ATOM    116  N23 UNL     1     -13.007  -6.025   1.119  0.00  0.00    +0.000 NA
ATOM    117  H91 UNL     1     -12.531  -5.750   1.989  0.00  0.00    +0.000 HD
ATOM    118  H92 UNL     1     -12.693  -6.973   0.802  0.00  0.00    +0.000 HD
ENDBRANCH 115 116
ENDBRANCH 114 115
ENDBRANCH 113 114
ENDBRANCH 112 113
ENDBRANCH  82 112
ENDBRANCH  80  82
ENDBRANCH  77  78
BRANCH  77 119
ATOM    119  C46 UNL     1      -5.564  -1.871  -1.614  0.00  0.00    +0.000 C 
BRANCH 119 120
ATOM    120  C47 UNL     1      -5.858  -2.633  -0.355  0.00  0.00    +0.000 C 
BRANCH 120 121
ATOM    121  C48 UNL     1      -5.243  -4.004  -0.295  0.00  0.00    +0.000 C 
BRANCH 121 122
ATOM    122  N19 UNL     1      -5.640  -4.878  -1.345  0.00  0.00    +0.000 N 
ATOM    123  C49 UNL     1      -5.127  -6.221  -1.318  0.00  0.00    +0.000 C 
ATOM    124  N20 UNL     1      -4.016  -6.404  -0.682  0.00  0.00    +0.000 NA
ATOM    125  N21 UNL     1      -5.825  -7.255  -1.956  0.00  0.00    +0.000 N 
ATOM    126  H77 UNL     1      -6.264  -4.577  -2.094  0.00  0.00    +0.000 HD
ATOM    127  H78 UNL     1      -3.598  -7.377  -0.631  0.00  0.00    +0.000 HD
ATOM    128  H79 UNL     1      -6.675  -7.066  -2.513  0.00  0.00    +0.000 HD
ATOM    129  H80 UNL     1      -5.486  -8.238  -1.870  0.00  0.00    +0.000 HD
ENDBRANCH 121 122
ENDBRANCH 120 121
ENDBRANCH 119 120
ENDBRANCH  77 119
ENDBRANCH  75  77
ENDBRANCH  72  73
BRANCH  72 130
ATOM    130  C40 UNL     1      -4.119   0.645   1.955  0.00  0.00    +0.000 C 
BRANCH 130 131
ATOM    131  C41 UNL     1      -5.332   1.304   2.487  0.00  0.00    +0.000 C 
BRANCH 131 132
ATOM    132  C42 UNL     1      -5.883   0.667   3.730  0.00  0.00    +0.000 C 
BRANCH 132 133
ATOM    133  C43 UNL     1      -4.857   0.646   4.848  0.00  0.00    +0.000 C 
BRANCH 133 134
ATOM    134  N17 UNL     1      -4.407   2.009   5.184  0.00  0.00    +0.000 NA
ATOM    135  H67 UNL     1      -4.103   2.051   6.185  0.00  0.00    +0.000 HD
ATOM    136  H68 UNL     1      -3.606   2.214   4.537  0.00  0.00    +0.000 HD
ENDBRANCH 133 134
ENDBRANCH 132 133
ENDBRANCH 131 132
ENDBRANCH 130 131
ENDBRANCH  72 130
ENDBRANCH  70  72
ENDBRANCH   1  68
BRANCH   1 137
ATOM    137  C31 UNL     1       0.174  -1.125   0.061  0.00  0.00    +0.000 C 
BRANCH 137 138
ATOM    138  C32 UNL     1      -0.309  -1.387  -1.252  0.00  0.00    +0.000 A 
ATOM    139  C33 UNL     1      -1.489  -2.088  -1.470  0.00  0.00    +0.000 A 
ATOM    140  C34 UNL     1      -1.988  -2.402  -2.695  0.00  0.00    +0.000 A 
ATOM    141  C35 UNL     1      -1.316  -2.023  -3.847  0.00  0.00    +0.000 A 
ATOM    142  C36 UNL     1      -0.134  -1.320  -3.676  0.00  0.00    +0.000 A 
ATOM    143  C37 UNL     1       0.354  -1.012  -2.432  0.00  0.00    +0.000 A 
BRANCH 141 144
ATOM    144  O7  UNL     1      -1.845  -2.360  -5.081  0.00  0.00    +0.000 OA
ATOM    145  H54 UNL     1      -1.651  -3.211  -5.592  0.00  0.00    +0.000 HD
ENDBRANCH 141 144
ENDBRANCH 137 138
ENDBRANCH   1 137
TORSDOF 58
