REMARK  Name = ./3D_structures\o45_MMV1579844_3D.pdb
REMARK  4 active torsions:
REMARK  status: ('A' for Active; 'I' for Inactive)
REMARK    1  A    between atoms: C1_2  and  C2_4
REMARK    2  A    between atoms: C5_7  and  C6_8
REMARK    3  A    between atoms: C6_8  and  O1_9
REMARK    4  A    between atoms: O1_9  and  C7_10
REMARK                            x       y       z     vdW  Elec       q    Type
REMARK                         _______ _______ _______ _____ _____    ______ ____
ROOT
ATOM      1  C2  UNL     1      -3.465   0.028  -0.143  0.00  0.00    +0.000 A 
ATOM      2  C3  UNL     1      -2.803   1.232  -0.149  0.00  0.00    +0.000 A 
ATOM      3  C4  UNL     1      -1.439   1.312  -0.388  0.00  0.00    +0.000 A 
ATOM      4  C5  UNL     1      -0.761   0.147  -0.622  0.00  0.00    +0.000 A 
ATOM      5  C13 UNL     1      -1.408  -1.075  -0.620  0.00  0.00    +0.000 A 
ATOM      6  C14 UNL     1      -2.757  -1.127  -0.381  0.00  0.00    +0.000 A 
ENDROOT
BRANCH   1   8
ATOM      7  N1  UNL     1      -5.601  -1.234   0.125  0.00  0.00    +0.000 N 
ATOM      8  C1  UNL     1      -4.903   0.003   0.115  0.00  0.00    +0.000 C 
ATOM      9  N2  UNL     1      -5.562   1.070   0.336  0.00  0.00    +0.000 NA
ATOM     10  H1  UNL     1      -6.181  -1.532  -0.682  0.00  0.00    +0.000 HD
ATOM     11  H2  UNL     1      -5.527  -1.849   0.956  0.00  0.00    +0.000 HD
ATOM     12  H3  UNL     1      -5.247   2.038   0.370  0.00  0.00    +0.000 HD
ENDBRANCH   1   8
BRANCH   4  13
ATOM     13  C6  UNL     1       0.685   0.150  -0.883  0.00  0.00    +0.000 C 
BRANCH  13  14
ATOM     14  O1  UNL     1       1.448   0.029   0.313  0.00  0.00    +0.000 OA
BRANCH  14  15
ATOM     15  C7  UNL     1       2.833   0.016   0.238  0.00  0.00    +0.000 A 
ATOM     16  C8  UNL     1       3.502   0.117  -0.966  0.00  0.00    +0.000 A 
ATOM     17  C9  UNL     1       4.877   0.106  -1.054  0.00  0.00    +0.000 A 
ATOM     18  C10 UNL     1       5.647  -0.010   0.082  0.00  0.00    +0.000 A 
ATOM     19 CL1  UNL     1       7.405  -0.028  -0.004  0.00  0.00    +0.000 Cl
ATOM     20  C11 UNL     1       4.997  -0.112   1.292  0.00  0.00    +0.000 A 
ATOM     21  C12 UNL     1       3.620  -0.099   1.365  0.00  0.00    +0.000 A 
ENDBRANCH  14  15
ENDBRANCH  13  14
ENDBRANCH   4  13
TORSDOF 4
