REMARK  Name = ./3D_structures\o46_MMV141011_3D.pdb
REMARK  2 active torsions:
REMARK  status: ('A' for Active; 'I' for Inactive)
REMARK    1  A    between atoms: C5_6  and  C7_8
REMARK    2  A    between atoms: C8_10  and  C9_13
REMARK                            x       y       z     vdW  Elec       q    Type
REMARK                         _______ _______ _______ _____ _____    ______ ____
ROOT
ATOM      1  C7  UNL     1      -0.990  -0.050   0.872  0.00  0.00    +0.000 A 
ATOM      2  O1  UNL     1      -0.052  -0.033  -0.032  0.00  0.00    +0.000 OA
ATOM      3  C8  UNL     1       1.103  -0.280   0.517  0.00  0.00    +0.000 A 
ATOM      4  N1  UNL     1       0.871  -0.460   1.829  0.00  0.00    +0.000 NA
ATOM      5  N2  UNL     1      -0.438  -0.317   2.054  0.00  0.00    +0.000 NA
ENDROOT
BRANCH   1  11
ATOM      6 CL1  UNL     1      -4.768   1.018  -2.512  0.00  0.00    +0.000 Cl
ATOM      7  C1  UNL     1      -4.165   0.673  -0.895  0.00  0.00    +0.000 A 
ATOM      8  C2  UNL     1      -5.090   0.634   0.137  0.00  0.00    +0.000 A 
ATOM      9  C3  UNL     1      -4.655   0.366   1.423  0.00  0.00    +0.000 A 
ATOM     10  C4  UNL     1      -3.322   0.144   1.662  0.00  0.00    +0.000 A 
ATOM     11  C5  UNL     1      -2.402   0.188   0.606  0.00  0.00    +0.000 A 
ATOM     12  C6  UNL     1      -2.825   0.454  -0.679  0.00  0.00    +0.000 A 
ENDBRANCH   1  11
BRANCH   3  13
ATOM     13  C9  UNL     1       2.424  -0.366  -0.080  0.00  0.00    +0.000 A 
ATOM     14  C10 UNL     1       3.545  -0.642   0.674  0.00  0.00    +0.000 A 
ATOM     15  C11 UNL     1       4.798  -0.723   0.112  0.00  0.00    +0.000 A 
ATOM     16  C12 UNL     1       4.998  -0.533  -1.234  0.00  0.00    +0.000 A 
ATOM     17  C13 UNL     1       3.891  -0.254  -2.017  0.00  0.00    +0.000 A 
ATOM     18  C14 UNL     1       2.648  -0.178  -1.431  0.00  0.00    +0.000 A 
ENDBRANCH   3  13
TORSDOF 2
