REMARK  Name = ./3D_structures\o47_MMV002516_3D.pdb
REMARK  5 active torsions:
REMARK  status: ('A' for Active; 'I' for Inactive)
REMARK    1  A    between atoms: C1_1  and  C2_2
REMARK    2  A    between atoms: C2_2  and  C3_3
REMARK    3  A    between atoms: C4_4  and  C5_5
REMARK    4  A    between atoms: C5_5  and  C6_6
REMARK    5  A    between atoms: N2_10  and  C9_11
REMARK                            x       y       z     vdW  Elec       q    Type
REMARK                         _______ _______ _______ _____ _____    ______ ____
ROOT
ATOM      1  C3  UNL     1      -1.854  -0.802   0.904  0.00  0.00    +0.000 C 
ATOM      2  C4  UNL     1      -0.366  -0.650   0.838  0.00  0.00    +0.000 C 
ATOM      3  C10 UNL     1      -0.166   0.741   1.314  0.00  0.00    +0.000 C 
ATOM      4  O1  UNL     1      -1.249   0.957   2.239  0.00  0.00    +0.000 OA
ATOM      5  C11 UNL     1      -2.182  -0.061   2.148  0.00  0.00    +0.000 C 
ATOM      6  O2  UNL     1      -3.130  -0.335   2.942  0.00  0.00    +0.000 OA
ENDROOT
BRANCH   1   8
ATOM      7  C1  UNL     1      -2.497   1.105  -0.623  0.00  0.00    +0.000 C 
ATOM      8  C2  UNL     1      -2.619  -0.329  -0.266  0.00  0.00    +0.000 C 
ENDBRANCH   1   8
BRANCH   2   9
ATOM      9  C5  UNL     1       0.250  -1.045  -0.440  0.00  0.00    +0.000 C 
BRANCH   9  10
ATOM     10  C6  UNL     1       1.729  -0.882  -0.454  0.00  0.00    +0.000 A 
ATOM     11  C7  UNL     1       2.687  -1.795  -0.060  0.00  0.00    +0.000 A 
ATOM     12  N1  UNL     1       3.903  -1.265  -0.242  0.00  0.00    +0.000 NA
ATOM     13  C8  UNL     1       3.749  -0.042  -0.740  0.00  0.00    +0.000 A 
ATOM     14  N2  UNL     1       2.429   0.198  -0.872  0.00  0.00    +0.000 N 
ATOM     15  C9  UNL     1       1.938   1.452  -1.400  0.00  0.00    +0.000 C 
ENDBRANCH   9  10
ENDBRANCH   2   9
TORSDOF 3
