REMARK  Name = ./3D_structures\o48_MMV688755_3D.pdb
REMARK  6 active torsions:
REMARK  status: ('A' for Active; 'I' for Inactive)
REMARK    1  A    between atoms: C1_2  and  O1_5
REMARK    2  A    between atoms: O1_5  and  C2_6
REMARK    3  A    between atoms: C5_9  and  C6_10
REMARK    4  A    between atoms: C6_10  and  O2_11
REMARK    5  A    between atoms: O2_11  and  C7_12
REMARK    6  A    between atoms: C10_17  and  N3_21
REMARK                            x       y       z     vdW  Elec       q    Type
REMARK                         _______ _______ _______ _____ _____    ______ ____
ROOT
ATOM      1  O2  UNL     1      -0.224   0.013   0.426  0.00  0.00    +0.000 OA
ENDROOT
BRANCH   1   2
ATOM      2  C7  UNL     1      -1.553   0.180   0.293  0.00  0.00    +0.000 C 
ATOM      3  C8  UNL     1      -2.019   1.174   1.365  0.00  0.00    +0.000 C 
ATOM      4  O3  UNL     1      -3.398   0.972   1.653  0.00  0.00    +0.000 OA
ATOM      5  C9  UNL     1      -4.249   0.389   0.725  0.00  0.00    +0.000 A 
ATOM      6  N1  UNL     1      -5.512   0.601   0.297  0.00  0.00    +0.000 NA
ATOM      7  C10 UNL     1      -5.834  -0.293  -0.649  0.00  0.00    +0.000 A 
ATOM      8  C11 UNL     1      -4.716  -1.086  -0.804  0.00  0.00    +0.000 A 
ATOM      9  N2  UNL     1      -3.756  -0.668   0.031  0.00  0.00    +0.000 N 
ATOM     10  C12 UNL     1      -2.394  -1.061   0.347  0.00  0.00    +0.000 C 
BRANCH   7  11
ATOM     11  N3  UNL     1      -7.080  -0.360  -1.314  0.00  0.00    +0.000 N 
ATOM     12  O4  UNL     1      -8.063   0.541  -0.997  0.00  0.00    +0.000 OA
ATOM     13  O5  UNL     1      -7.332  -1.212  -2.188  0.00  0.00    +0.000 OA
ENDBRANCH   7  11
ENDBRANCH   1   2
BRANCH   1  14
ATOM     14  C6  UNL     1       0.580   0.446  -0.592  0.00  0.00    +0.000 C 
BRANCH  14  18
ATOM     15  C2  UNL     1       4.667  -0.315   0.493  0.00  0.00    +0.000 A 
ATOM     16  C3  UNL     1       3.951  -1.270  -0.197  0.00  0.00    +0.000 A 
ATOM     17  C4  UNL     1       2.629  -1.021  -0.547  0.00  0.00    +0.000 A 
ATOM     18  C5  UNL     1       1.993   0.159  -0.227  0.00  0.00    +0.000 A 
ATOM     19  C13 UNL     1       2.721   1.107   0.463  0.00  0.00    +0.000 A 
ATOM     20  C14 UNL     1       4.034   0.878   0.819  0.00  0.00    +0.000 A 
BRANCH  15  21
ATOM     21  O1  UNL     1       5.974  -0.546   0.846  0.00  0.00    +0.000 OA
BRANCH  21  23
ATOM     22  F1  UNL     1       8.220  -0.622   0.780  0.00  0.00    +0.000 F 
ATOM     23  C1  UNL     1       7.086  -0.225   0.059  0.00  0.00    +0.000 C 
ATOM     24  F2  UNL     1       7.166   1.110  -0.268  0.00  0.00    +0.000 F 
ATOM     25  F3  UNL     1       7.113  -0.933  -1.126  0.00  0.00    +0.000 F 
ENDBRANCH  21  23
ENDBRANCH  15  21
ENDBRANCH  14  18
ENDBRANCH   1  14
TORSDOF 6
