REMARK  Name = ./3D_structures\o49_MMV020752_3D.pdb
REMARK  5 active torsions:
REMARK  status: ('A' for Active; 'I' for Inactive)
REMARK    1  A    between atoms: C1_1  and  N1_2
REMARK    2  A    between atoms: N2_5  and  C6_8
REMARK    3  A    between atoms: C10_13  and  C13_17
REMARK    4  A    between atoms: C17_22  and  C20_26
REMARK    5  A    between atoms: C23_29  and  O1_30
REMARK                            x       y       z     vdW  Elec       q    Type
REMARK                         _______ _______ _______ _____ _____    ______ ____
ROOT
ATOM      1  C13 UNL     1       1.697   0.578   0.157  0.00  0.00    +0.000 A 
ATOM      2  C14 UNL     1       2.026   1.827   0.641  0.00  0.00    +0.000 A 
ATOM      3  C15 UNL     1       3.326   2.256   0.799  0.00  0.00    +0.000 A 
ATOM      4  C16 UNL     1       4.360   1.391   0.454  0.00  0.00    +0.000 A 
ATOM      5  N5  UNL     1       5.700   1.481   0.480  0.00  0.00    +0.000 N 
ATOM      6  C17 UNL     1       6.267   0.346   0.034  0.00  0.00    +0.000 A 
ATOM      7  N6  UNL     1       5.257  -0.479  -0.280  0.00  0.00    +0.000 NA
ATOM      8  C18 UNL     1       4.070   0.134  -0.033  0.00  0.00    +0.000 A 
ATOM      9  C19 UNL     1       2.742  -0.257  -0.176  0.00  0.00    +0.000 A 
ATOM     10  H18 UNL     1       6.207   2.340   0.811  0.00  0.00    +0.000 HD
ENDROOT
BRANCH   1  16
ATOM     11  C6  UNL     1      -4.179  -0.663  -0.271  0.00  0.00    +0.000 A 
ATOM     12  C7  UNL     1      -3.708  -1.890  -0.753  0.00  0.00    +0.000 A 
ATOM     13  C8  UNL     1      -2.352  -2.087  -0.844  0.00  0.00    +0.000 A 
ATOM     14  C9  UNL     1      -1.429  -1.136  -0.482  0.00  0.00    +0.000 A 
ATOM     15  N3  UNL     1      -0.102  -1.043  -0.459  0.00  0.00    +0.000 N 
ATOM     16  C10 UNL     1       0.304   0.151   0.003  0.00  0.00    +0.000 A 
ATOM     17  N4  UNL     1      -0.814   0.840   0.282  0.00  0.00    +0.000 NA
ATOM     18  C11 UNL     1      -1.906   0.089   0.000  0.00  0.00    +0.000 A 
ATOM     19  C12 UNL     1      -3.265   0.291   0.092  0.00  0.00    +0.000 A 
ATOM     20  H14 UNL     1       0.553  -1.812  -0.765  0.00  0.00    +0.000 HD
BRANCH  11  25
ATOM     21  C1  UNL     1      -9.544   0.657  -0.108  0.00  0.00    +0.000 C 
ATOM     22  N1  UNL     1      -8.423  -0.172   0.218  0.00  0.00    +0.000 NA
ATOM     23  C2  UNL     1      -7.832  -0.730  -0.977  0.00  0.00    +0.000 C 
ATOM     24  C3  UNL     1      -6.530  -1.452  -0.666  0.00  0.00    +0.000 C 
ATOM     25  N2  UNL     1      -5.596  -0.446  -0.175  0.00  0.00    +0.000 N 
ATOM     26  C4  UNL     1      -6.144   0.748   0.400  0.00  0.00    +0.000 C 
ATOM     27  C5  UNL     1      -7.466   0.449   1.080  0.00  0.00    +0.000 C 
ENDBRANCH  11  25
ENDBRANCH   1  16
BRANCH   6  28
ATOM     28  C20 UNL     1       7.702   0.096  -0.072  0.00  0.00    +0.000 A 
ATOM     29  C21 UNL     1       8.634   1.044   0.295  0.00  0.00    +0.000 A 
ATOM     30  C22 UNL     1      10.002   0.811   0.196  0.00  0.00    +0.000 A 
ATOM     31  C23 UNL     1      10.468  -0.396  -0.282  0.00  0.00    +0.000 A 
ATOM     32  C24 UNL     1       9.538  -1.349  -0.651  0.00  0.00    +0.000 A 
ATOM     33  C25 UNL     1       8.181  -1.106  -0.548  0.00  0.00    +0.000 A 
BRANCH  31  34
ATOM     34  O1  UNL     1      11.844  -0.617  -0.377  0.00  0.00    +0.000 OA
ATOM     35  H22 UNL     1      12.340  -0.374  -1.234  0.00  0.00    +0.000 HD
ENDBRANCH  31  34
ENDBRANCH   6  28
TORSDOF 4
