REMARK  Name = ./3D_structures\o4_MMV1578561_3D.pdb
REMARK  8 active torsions:
REMARK  status: ('A' for Active; 'I' for Inactive)
REMARK    1  A    between atoms: C1_1  and  C2_2
REMARK    2  A    between atoms: C2_2  and  C3_3
REMARK    3  A    between atoms: C3_3  and  C4_4
REMARK    4  A    between atoms: C4_4  and  C5_5
REMARK    5  A    between atoms: C5_5  and  C6_6
REMARK    6  A    between atoms: C6_6  and  C7_7
REMARK    7  A    between atoms: C7_7  and  C8_8
REMARK    8  A    between atoms: C9_9  and  O1_10
REMARK                            x       y       z     vdW  Elec       q    Type
REMARK                         _______ _______ _______ _____ _____    ______ ____
ROOT
ATOM      1  C8  UNL     1      -1.027  -1.384  -0.135  0.00  0.00    +0.000 A 
ATOM      2  C9  UNL     1      -1.956  -1.445  -1.179  0.00  0.00    +0.000 A 
ATOM      3  C10 UNL     1      -2.873  -0.418  -1.243  0.00  0.00    +0.000 A 
ATOM      4  O2  UNL     1      -3.721  -0.443  -2.170  0.00  0.00    +0.000 OA
ATOM      5  C11 UNL     1      -2.892   0.623  -0.339  0.00  0.00    +0.000 A 
ATOM      6  C12 UNL     1      -3.801   1.658  -0.389  0.00  0.00    +0.000 A 
ATOM      7  C13 UNL     1      -3.795   2.685   0.530  0.00  0.00    +0.000 A 
ATOM      8  C14 UNL     1      -2.851   2.699   1.550  0.00  0.00    +0.000 A 
ATOM      9  C15 UNL     1      -1.937   1.660   1.601  0.00  0.00    +0.000 A 
ATOM     10  C16 UNL     1      -1.958   0.640   0.672  0.00  0.00    +0.000 A 
ATOM     11  N1  UNL     1      -1.044  -0.374   0.745  0.00  0.00    +0.000 N 
ATOM     12  H21 UNL     1      -0.357  -0.319   1.534  0.00  0.00    +0.000 HD
ENDROOT
BRANCH   2  13
ATOM     13  O1  UNL     1      -1.918  -2.500  -2.076  0.00  0.00    +0.000 OA
ATOM     14  H16 UNL     1      -2.598  -2.527  -2.824  0.00  0.00    +0.000 HD
ENDBRANCH   2  13
BRANCH   1  15
ATOM     15  C7  UNL     1      -0.034  -2.502  -0.054  0.00  0.00    +0.000 C 
BRANCH  15  16
ATOM     16  C6  UNL     1       1.022  -2.396  -1.105  0.00  0.00    +0.000 C 
BRANCH  16  17
ATOM     17  C5  UNL     1       1.844  -1.101  -1.001  0.00  0.00    +0.000 C 
BRANCH  17  18
ATOM     18  C4  UNL     1       2.537  -1.102   0.300  0.00  0.00    +0.000 C 
BRANCH  18  19
ATOM     19  C3  UNL     1       3.436   0.003   0.659  0.00  0.00    +0.000 C 
BRANCH  19  21
ATOM     20  C1  UNL     1       2.425   1.861  -0.602  0.00  0.00    +0.000 C 
ATOM     21  C2  UNL     1       2.920   1.386   0.736  0.00  0.00    +0.000 C 
ENDBRANCH  19  21
ENDBRANCH  18  19
ENDBRANCH  17  18
ENDBRANCH  16  17
ENDBRANCH  15  16
ENDBRANCH   1  15
TORSDOF 7
