REMARK  Name = ./3D_structures\o50_MMV1229204_3D.pdb
REMARK  12 active torsions:
REMARK  status: ('A' for Active; 'I' for Inactive)
REMARK    1  A    between atoms: C1_1  and  C2_2
REMARK    2  A    between atoms: C2_2  and  C3_3
REMARK    3  A    between atoms: C2_2  and  C4_4
REMARK    4  A    between atoms: C2_2  and  C5_5
REMARK    5  A    between atoms: C7_7  and  C8_8
REMARK    6  A    between atoms: C8_8  and  C9_9
REMARK    7  A    between atoms: C9_9  and  C10_10
REMARK    8  A    between atoms: C15_17  and  C17_20
REMARK    9  A    between atoms: C16_18  and  O2_19
REMARK   10  A    between atoms: C17_20  and  C18_21
REMARK   11  A    between atoms: C17_20  and  C19_22
REMARK   12  A    between atoms: C17_20  and  C20_23
REMARK                            x       y       z     vdW  Elec       q    Type
REMARK                         _______ _______ _______ _____ _____    ______ ____
ROOT
ATOM      1  C5  UNL     1      -1.653  -1.032  -0.152  0.00  0.00    +0.000 A 
ATOM      2  C6  UNL     1      -0.549  -1.191  -0.958  0.00  0.00    +0.000 A 
ATOM      3  C7  UNL     1       0.205  -0.115  -1.442  0.00  0.00    +0.000 A 
ATOM      4  C14 UNL     1      -0.215   1.137  -1.070  0.00  0.00    +0.000 A 
ATOM      5  C15 UNL     1      -1.317   1.367  -0.260  0.00  0.00    +0.000 A 
ATOM      6  C16 UNL     1      -2.014   0.261   0.182  0.00  0.00    +0.000 A 
ENDROOT
BRANCH   1   8
ATOM      7  C1  UNL     1      -1.691  -3.455  -0.259  0.00  0.00    +0.000 C 
ATOM      8  C2  UNL     1      -2.383  -2.230   0.301  0.00  0.00    +0.000 C 
ATOM      9  C3  UNL     1      -2.351  -2.373   1.810  0.00  0.00    +0.000 C 
ATOM     10  C4  UNL     1      -3.814  -2.258  -0.151  0.00  0.00    +0.000 C 
ENDBRANCH   1   8
BRANCH   5  11
ATOM     11  C17 UNL     1      -1.716   2.751   0.106  0.00  0.00    +0.000 C 
ATOM     12  C18 UNL     1      -1.688   2.951   1.613  0.00  0.00    +0.000 C 
ATOM     13  C19 UNL     1      -0.718   3.717  -0.482  0.00  0.00    +0.000 C 
ATOM     14  C20 UNL     1      -3.071   3.099  -0.479  0.00  0.00    +0.000 C 
ENDBRANCH   5  11
BRANCH   6  15
ATOM     15  O2  UNL     1      -3.119   0.425   0.991  0.00  0.00    +0.000 OA
ATOM     16  H22 UNL     1      -3.661  -0.328   1.346  0.00  0.00    +0.000 HD
ENDBRANCH   6  15
BRANCH   3  17
ATOM     17  C8  UNL     1       1.357  -0.354  -2.332  0.00  0.00    +0.000 C 
BRANCH  17  18
ATOM     18  C9  UNL     1       2.558  -0.740  -1.553  0.00  0.00    +0.000 C 
BRANCH  18  19
ATOM     19  C10 UNL     1       3.073   0.211  -0.571  0.00  0.00    +0.000 C 
ATOM     20  O1  UNL     1       2.613   1.357  -0.385  0.00  0.00    +0.000 OA
ATOM     21  N1  UNL     1       4.174  -0.163   0.243  0.00  0.00    +0.000 N 
ATOM     22  C11 UNL     1       4.958   0.460   1.297  0.00  0.00    +0.000 C 
ATOM     23  C12 UNL     1       6.043  -0.589   1.063  0.00  0.00    +0.000 C 
ATOM     24  C13 UNL     1       4.971  -1.367   0.336  0.00  0.00    +0.000 C 
ENDBRANCH  18  19
ENDBRANCH  17  18
ENDBRANCH   3  17
TORSDOF 6
