REMARK  Name = ./3D_structures\o51_MMV1578575_3D.pdb
REMARK  16 active torsions:
REMARK  status: ('A' for Active; 'I' for Inactive)
REMARK    1  A    between atoms: C1_1  and  C2_2
REMARK    2  A    between atoms: C3_3  and  O1_4
REMARK    3  A    between atoms: C6_7  and  C7_8
REMARK    4  A    between atoms: C11_12  and  C12_13
REMARK    5  A    between atoms: C14_15  and  O2_16
REMARK    6  A    between atoms: C18_20  and  C19_21
REMARK    7  A    between atoms: C18_20  and  C25_27
REMARK    8  A    between atoms: C19_21  and  C20_22
REMARK    9  A    between atoms: C20_22  and  C21_23
REMARK   10  A    between atoms: C22_24  and  C23_25
REMARK   11  A    between atoms: C22_24  and  C24_26
REMARK   12  A    between atoms: C25_27  and  O4_29
REMARK   13  A    between atoms: C26_30  and  O5_34
REMARK   14  A    between atoms: C28_32  and  C29_33
REMARK   15  A    between atoms: O5_34  and  C30_35
REMARK   16  A    between atoms: C30_35  and  C31_37
REMARK                            x       y       z     vdW  Elec       q    Type
REMARK                         _______ _______ _______ _____ _____    ______ ____
ROOT
ATOM      1  C1  UNL     1       6.192   1.011  -1.413  0.00  0.00    +0.000 C 
ATOM      2  C2  UNL     1       5.580   0.045  -0.374  0.00  0.00    +0.000 C 
ATOM      3  C3  UNL     1       5.823  -1.328  -0.877  0.00  0.00    +0.000 C 
ATOM      4  C4  UNL     1       4.850  -2.392  -0.611  0.00  0.00    +0.000 C 
ATOM      5  C5  UNL     1       3.372  -1.958  -0.610  0.00  0.00    +0.000 C 
ATOM      6  C6  UNL     1       3.311  -0.809   0.275  0.00  0.00    +0.000 C 
ATOM      7  C7  UNL     1       4.052  -1.224   1.562  0.00  0.00    +0.000 C 
ATOM      8  C8  UNL     1       4.086   0.292  -0.454  0.00  0.00    +0.000 C 
ATOM      9  C9  UNL     1       3.650   1.665  -0.125  0.00  0.00    +0.000 C 
ATOM     10  C10 UNL     1       2.232   1.876  -0.582  0.00  0.00    +0.000 C 
ATOM     11  C11 UNL     1       1.337   0.673  -0.293  0.00  0.00    +0.000 C 
ATOM     12  C12 UNL     1       0.975  -0.065  -1.535  0.00  0.00    +0.000 C 
ATOM     13  C13 UNL     1       2.032  -0.200   0.728  0.00  0.00    +0.000 C 
ATOM     14  C14 UNL     1       1.157  -0.958   1.625  0.00  0.00    +0.000 C 
ATOM     15  C15 UNL     1      -0.332  -0.973   1.364  0.00  0.00    +0.000 C 
ATOM     16  C16 UNL     1      -0.851   0.026   0.431  0.00  0.00    +0.000 C 
ATOM     17  C17 UNL     1      -2.175   0.618   0.545  0.00  0.00    +0.000 C 
ATOM     18  C18 UNL     1      -3.301  -0.036   0.764  0.00  0.00    +0.000 C 
ATOM     19  C26 UNL     1      -2.047   2.076   0.321  0.00  0.00    +0.000 C 
ATOM     20  C27 UNL     1      -0.667   2.179  -0.437  0.00  0.00    +0.000 C 
ATOM     21  C28 UNL     1       0.087   1.207   0.369  0.00  0.00    +0.000 C 
ATOM     22  C29 UNL     1       0.263   1.806   1.701  0.00  0.00    +0.000 C 
ENDROOT
BRANCH   3  23
ATOM     23  O1  UNL     1       6.089  -1.307  -2.267  0.00  0.00    +0.000 OA
ATOM     24  H6  UNL     1       5.196  -1.284  -2.693  0.00  0.00    +0.000 HD
ENDBRANCH   3  23
BRANCH  14  25
ATOM     25  O2  UNL     1       1.544  -2.328   1.716  0.00  0.00    +0.000 OA
ATOM     26  H24 UNL     1       0.770  -2.893   1.928  0.00  0.00    +0.000 HD
ENDBRANCH  14  25
BRANCH  18  27
ATOM     27  C25 UNL     1      -4.555   0.733   0.865  0.00  0.00    +0.000 C 
ATOM     28  O3  UNL     1      -5.669   0.141   1.118  0.00  0.00    +0.000 OA
BRANCH  27  29
ATOM     29  O4  UNL     1      -4.634   2.069   0.704  0.00  0.00    +0.000 OA
ATOM     30  H39 UNL     1      -5.417   2.663   0.912  0.00  0.00    +0.000 HD
ENDBRANCH  27  29
ENDBRANCH  18  27
BRANCH  18  31
ATOM     31  C19 UNL     1      -3.458  -1.493   0.940  0.00  0.00    +0.000 C 
BRANCH  31  32
ATOM     32  C20 UNL     1      -3.882  -2.102  -0.374  0.00  0.00    +0.000 C 
BRANCH  32  33
ATOM     33  C21 UNL     1      -5.120  -1.576  -0.964  0.00  0.00    +0.000 C 
ATOM     34  C22 UNL     1      -6.229  -2.291  -1.110  0.00  0.00    +0.000 C 
ATOM     35  C23 UNL     1      -7.438  -1.683  -1.718  0.00  0.00    +0.000 C 
ATOM     36  C24 UNL     1      -6.303  -3.715  -0.675  0.00  0.00    +0.000 C 
ENDBRANCH  32  33
ENDBRANCH  31  32
ENDBRANCH  18  31
BRANCH  19  37
ATOM     37  O5  UNL     1      -1.978   2.876   1.452  0.00  0.00    +0.000 OA
BRANCH  37  38
ATOM     38  C30 UNL     1      -2.494   4.098   1.712  0.00  0.00    +0.000 C 
ATOM     39  O6  UNL     1      -3.152   4.678   0.834  0.00  0.00    +0.000 OA
ATOM     40  C31 UNL     1      -2.323   4.820   3.017  0.00  0.00    +0.000 C 
ENDBRANCH  37  38
ENDBRANCH  19  37
TORSDOF 9
