REMARK  Name = ./3D_structures\o52_MMV1578556_3D.pdb
REMARK  5 active torsions:
REMARK  status: ('A' for Active; 'I' for Inactive)
REMARK    1  A    between atoms: C1_1  and  C2_2
REMARK    2  A    between atoms: C5_5  and  O1_6
REMARK    3  A    between atoms: C6_7  and  C7_8
REMARK    4  A    between atoms: C6_7  and  C8_9
REMARK    5  A    between atoms: C12_13  and  C13_14
REMARK                            x       y       z     vdW  Elec       q    Type
REMARK                         _______ _______ _______ _____ _____    ______ ____
ROOT
ATOM      1  C1  UNL     1       3.255  -0.271   1.384  0.00  0.00    +0.000 C 
ATOM      2  C2  UNL     1       2.198  -0.204   0.340  0.00  0.00    +0.000 C 
ATOM      3  C3  UNL     1       1.637  -1.561   0.038  0.00  0.00    +0.000 C 
ATOM      4  C4  UNL     1       0.504  -1.577  -0.909  0.00  0.00    +0.000 C 
ATOM      5  C5  UNL     1      -0.441  -0.437  -0.850  0.00  0.00    +0.000 C 
ATOM      6  C6  UNL     1      -1.560  -0.583   0.127  0.00  0.00    +0.000 C 
ATOM      7  C7  UNL     1      -2.925  -0.264  -0.502  0.00  0.00    +0.000 C 
ATOM      8  C8  UNL     1      -1.724  -1.980   0.666  0.00  0.00    +0.000 C 
ATOM      9  C9  UNL     1      -1.319   0.400   1.259  0.00  0.00    +0.000 C 
ATOM     10  C10 UNL     1      -1.546   1.825   0.751  0.00  0.00    +0.000 C 
ATOM     11  C11 UNL     1      -0.662   2.026  -0.448  0.00  0.00    +0.000 C 
ATOM     12  C12 UNL     1       0.291   0.888  -0.666  0.00  0.00    +0.000 C 
ATOM     13  C13 UNL     1       1.176   1.206  -1.831  0.00  0.00    +0.000 C 
ATOM     14  C14 UNL     1       1.091   0.748   0.638  0.00  0.00    +0.000 C 
ATOM     15  C15 UNL     1       0.139   0.301   1.690  0.00  0.00    +0.000 C 
ENDROOT
BRANCH   5  16
ATOM     16  O1  UNL     1      -1.045  -0.335  -2.129  0.00  0.00    +0.000 OA
ATOM     17  H9  UNL     1      -1.130   0.583  -2.428  0.00  0.00    +0.000 HD
ENDBRANCH   5  16
TORSDOF 1
