REMARK  Name = ./3D_structures\o53_MMV1663457_3D.pdb
REMARK  5 active torsions:
REMARK  status: ('A' for Active; 'I' for Inactive)
REMARK    1  A    between atoms: C1_2  and  C9_11
REMARK    2  A    between atoms: N1_3  and  C2_4
REMARK    3  A    between atoms: C2_4  and  C3_5
REMARK    4  A    between atoms: C10_12  and  C16_20
REMARK    5  A    between atoms: C16_20  and  C17_21
REMARK                            x       y       z     vdW  Elec       q    Type
REMARK                         _______ _______ _______ _____ _____    ______ ____
ROOT
ATOM      1  O1  UNL     1      -0.244  -2.122   0.693  0.00  0.00    +0.000 OA
ATOM      2  C1  UNL     1      -0.378  -0.934   0.303  0.00  0.00    +0.000 C 
ATOM      3  N1  UNL     1       0.831  -0.196   0.184  0.00  0.00    +0.000 N 
ATOM      4  H1  UNL     1       0.784   0.764  -0.183  0.00  0.00    +0.000 HD
ENDROOT
BRANCH   2   5
ATOM      5  C9  UNL     1      -1.715  -0.442   0.014  0.00  0.00    +0.000 A 
ATOM      6  C10 UNL     1      -2.712  -1.243  -0.498  0.00  0.00    +0.000 A 
ATOM      7  N2  UNL     1      -3.793  -0.440  -0.608  0.00  0.00    +0.000 NA
ATOM      8  C11 UNL     1      -3.510   0.799  -0.190  0.00  0.00    +0.000 A 
ATOM      9  N3  UNL     1      -2.227   0.820   0.201  0.00  0.00    +0.000 N 
ATOM     10  C12 UNL     1      -1.672   1.960   0.692  0.00  0.00    +0.000 A 
ATOM     11  C13 UNL     1      -2.402   3.102   0.793  0.00  0.00    +0.000 A 
ATOM     12  C14 UNL     1      -3.712   3.132   0.406  0.00  0.00    +0.000 A 
ATOM     13  C15 UNL     1      -4.250   1.962  -0.085  0.00  0.00    +0.000 A 
BRANCH   6  14
ATOM     14  C16 UNL     1      -2.707  -2.686  -0.864  0.00  0.00    +0.000 C 
ATOM     15  C17 UNL     1      -2.897  -3.630   0.258  0.00  0.00    +0.000 C 
ENDBRANCH   6  14
ENDBRANCH   2   5
BRANCH   3  16
ATOM     16  C2  UNL     1       2.124  -0.808   0.530  0.00  0.00    +0.000 C 
BRANCH  16  17
ATOM     17  C3  UNL     1       3.276  -0.014   0.127  0.00  0.00    +0.000 A 
ATOM     18  C4  UNL     1       4.168  -0.591  -0.789  0.00  0.00    +0.000 A 
ATOM     19  C5  UNL     1       5.294   0.065  -1.229  0.00  0.00    +0.000 A 
ATOM     20  C6  UNL     1       5.520   1.328  -0.731  0.00  0.00    +0.000 A 
ATOM     21  C7  UNL     1       4.653   1.907   0.168  0.00  0.00    +0.000 A 
ATOM     22  C8  UNL     1       3.545   1.249   0.594  0.00  0.00    +0.000 A 
ENDBRANCH  16  17
ENDBRANCH   3  16
TORSDOF 4
