REMARK  Name = ./3D_structures\o54_MMV1341773_3D.pdb
REMARK  3 active torsions:
REMARK  status: ('A' for Active; 'I' for Inactive)
REMARK    1  A    between atoms: C1_2  and  C5_6
REMARK    2  A    between atoms: N1_8  and  C6_9
REMARK    3  A    between atoms: C6_9  and  C7_10
REMARK                            x       y       z     vdW  Elec       q    Type
REMARK                         _______ _______ _______ _____ _____    ______ ____
ROOT
ATOM      1  C7  UNL     1      -0.528  -0.389   0.023  0.00  0.00    +0.000 A 
ATOM      2  C8  UNL     1      -0.306   0.698  -0.786  0.00  0.00    +0.000 A 
ATOM      3  C9  UNL     1      -1.343   1.550  -1.187  0.00  0.00    +0.000 A 
ATOM      4  C10 UNL     1      -2.619   1.297  -0.763  0.00  0.00    +0.000 A 
ATOM      5  C11 UNL     1      -2.820   0.210   0.040  0.00  0.00    +0.000 A 
ATOM      6  C12 UNL     1      -4.146   0.065   0.397  0.00  0.00    +0.000 A 
ATOM      7  C13 UNL     1      -4.869   1.161  -0.236  0.00  0.00    +0.000 C 
ATOM      8  O2  UNL     1      -6.103   1.362  -0.142  0.00  0.00    +0.000 OA
ATOM      9  N2  UNL     1      -3.895   1.908  -0.950  0.00  0.00    +0.000 N 
ATOM     10  C14 UNL     1      -4.472  -0.997   1.208  0.00  0.00    +0.000 A 
ATOM     11  C15 UNL     1      -3.487  -1.866   1.631  0.00  0.00    +0.000 A 
ATOM     12  C16 UNL     1      -2.163  -1.697   1.258  0.00  0.00    +0.000 A 
ATOM     13  C17 UNL     1      -1.833  -0.629   0.442  0.00  0.00    +0.000 A 
ATOM     14  H9  UNL     1      -4.071   2.759  -1.515  0.00  0.00    +0.000 HD
ENDROOT
BRANCH   1  15
ATOM     15  C6  UNL     1       0.489  -1.343   0.480  0.00  0.00    +0.000 C 
BRANCH  15  18
ATOM     16  C5  UNL     1       2.512   0.121   0.481  0.00  0.00    +0.000 C 
ATOM     17  O1  UNL     1       1.941   0.926   1.249  0.00  0.00    +0.000 OA
ATOM     18  N1  UNL     1       1.834  -1.049   0.057  0.00  0.00    +0.000 N 
ATOM     19  H4  UNL     1       2.355  -1.694  -0.580  0.00  0.00    +0.000 HD
BRANCH  16  21
ATOM     20  S1  UNL     1       4.843   1.822   0.479  0.00  0.00    +0.000 S 
ATOM     21  C1  UNL     1       3.879   0.398   0.028  0.00  0.00    +0.000 A 
ATOM     22  C2  UNL     1       4.702  -0.297  -0.787  0.00  0.00    +0.000 A 
ATOM     23  C3  UNL     1       5.928   0.193  -1.041  0.00  0.00    +0.000 A 
ATOM     24  C4  UNL     1       6.294   1.360  -0.477  0.00  0.00    +0.000 A 
ENDBRANCH  16  21
ENDBRANCH  15  18
ENDBRANCH   1  15
TORSDOF 3
