REMARK  Name = ./3D_structures\o55_MMV1633970_3D.pdb
REMARK  10 active torsions:
REMARK  status: ('A' for Active; 'I' for Inactive)
REMARK    1  A    between atoms: C1_2  and  O2_3
REMARK    2  A    between atoms: C1_2  and  C2_4
REMARK    3  A    between atoms: C5_7  and  C6_8
REMARK    4  A    between atoms: C9_11  and  O3_12
REMARK    5  A    between atoms: O3_12  and  C10_13
REMARK    6  A    between atoms: C11_15  and  C15_22
REMARK    7  A    between atoms: C12_16  and  O5_17
REMARK    8  A    between atoms: C13_18  and  O7_21
REMARK    9  A    between atoms: C14_19  and  O6_20
REMARK   10  A    between atoms: C15_22  and  O8_23
REMARK                            x       y       z     vdW  Elec       q    Type
REMARK                         _______ _______ _______ _____ _____    ______ ____
ROOT
ATOM      1  C6  UNL     1       2.604   0.233  -0.003  0.00  0.00    +0.000 A 
ATOM      2  C7  UNL     1       1.705  -0.781  -0.252  0.00  0.00    +0.000 A 
ATOM      3  C8  UNL     1       0.350  -0.506  -0.086  0.00  0.00    +0.000 A 
ATOM      4  C9  UNL     1      -0.117   0.713   0.309  0.00  0.00    +0.000 A 
ATOM      5  C16 UNL     1       0.842   1.703   0.547  0.00  0.00    +0.000 A 
ATOM      6  C17 UNL     1       2.185   1.484   0.398  0.00  0.00    +0.000 A 
ENDROOT
BRANCH   1  10
ATOM      7  C2  UNL     1       6.738  -0.568  -0.533  0.00  0.00    +0.000 A 
ATOM      8  C3  UNL     1       5.772  -1.191  -1.312  0.00  0.00    +0.000 A 
ATOM      9  C4  UNL     1       4.440  -0.911  -1.118  0.00  0.00    +0.000 A 
ATOM     10  C5  UNL     1       4.025  -0.027  -0.170  0.00  0.00    +0.000 A 
ATOM     11  C18 UNL     1       5.001   0.587   0.600  0.00  0.00    +0.000 A 
ATOM     12  C19 UNL     1       6.352   0.325   0.427  0.00  0.00    +0.000 A 
BRANCH   7  14
ATOM     13  O1  UNL     1       8.525  -1.685  -1.636  0.00  0.00    +0.000 OA
ATOM     14  C1  UNL     1       8.138  -0.873  -0.751  0.00  0.00    +0.000 C 
BRANCH  14  15
ATOM     15  O2  UNL     1       9.106  -0.243   0.051  0.00  0.00    +0.000 OA
ATOM     16  H1  UNL     1       9.957  -0.750   0.298  0.00  0.00    +0.000 HD
ENDBRANCH  14  15
ENDBRANCH   7  14
ENDBRANCH   1  10
BRANCH   4  17
ATOM     17  O3  UNL     1      -1.440   1.026   0.486  0.00  0.00    +0.000 OA
BRANCH  17  18
ATOM     18  C10 UNL     1      -2.542   0.207   0.306  0.00  0.00    +0.000 C 
ATOM     19  O4  UNL     1      -3.240  -0.036   1.482  0.00  0.00    +0.000 OA
ATOM     20  C11 UNL     1      -4.555   0.339   1.374  0.00  0.00    +0.000 C 
ATOM     21  C12 UNL     1      -5.269  -0.452   0.294  0.00  0.00    +0.000 C 
ATOM     22  C13 UNL     1      -4.539  -0.256  -1.014  0.00  0.00    +0.000 C 
ATOM     23  C14 UNL     1      -3.429   0.746  -0.804  0.00  0.00    +0.000 C 
BRANCH  21  24
ATOM     24  O5  UNL     1      -6.554   0.028   0.179  0.00  0.00    +0.000 OA
ATOM     25  H9  UNL     1      -7.195  -0.637   0.576  0.00  0.00    +0.000 HD
ENDBRANCH  21  24
BRANCH  23  26
ATOM     26  O6  UNL     1      -2.623   0.741  -1.969  0.00  0.00    +0.000 OA
ATOM     27  H12 UNL     1      -3.258   0.545  -2.731  0.00  0.00    +0.000 HD
ENDBRANCH  23  26
BRANCH  22  28
ATOM     28  O7  UNL     1      -3.919  -1.467  -1.395  0.00  0.00    +0.000 OA
ATOM     29  H13 UNL     1      -4.139  -2.177  -0.740  0.00  0.00    +0.000 HD
ENDBRANCH  22  28
BRANCH  20  30
ATOM     30  C15 UNL     1      -5.288   0.198   2.704  0.00  0.00    +0.000 C 
BRANCH  30  31
ATOM     31  O8  UNL     1      -6.606   0.608   2.471  0.00  0.00    +0.000 OA
ATOM     32  H16 UNL     1      -6.577   1.480   2.029  0.00  0.00    +0.000 HD
ENDBRANCH  30  31
ENDBRANCH  20  30
ENDBRANCH  17  18
ENDBRANCH   4  17
TORSDOF 10
