REMARK  Name = ./3D_structures\o57_MMV093250_3D.pdb
REMARK  4 active torsions:
REMARK  status: ('A' for Active; 'I' for Inactive)
REMARK    1  A    between atoms: C1_1  and  C2_2
REMARK    2  A    between atoms: C5_6  and  C6_7
REMARK    3  A    between atoms: C11_15  and  C19_25
REMARK    4  A    between atoms: N4_17  and  C13_18
REMARK                            x       y       z     vdW  Elec       q    Type
REMARK                         _______ _______ _______ _____ _____    ______ ____
ROOT
ATOM      1  C1  UNL     1       4.238  -1.289  -2.252  0.00  0.00    +0.000 C 
ATOM      2  C2  UNL     1       4.049  -0.327  -1.110  0.00  0.00    +0.000 C 
ATOM      3  C3  UNL     1       2.653   0.317  -1.162  0.00  0.00    +0.000 C 
ATOM      4  N1  UNL     1       1.831  -0.285  -0.127  0.00  0.00    +0.000 N 
ATOM      5  C4  UNL     1       2.327  -0.211   1.232  0.00  0.00    +0.000 C 
ATOM      6  C5  UNL     1       3.862  -0.260   1.174  0.00  0.00    +0.000 C 
ATOM      7  C6  UNL     1       4.385  -0.860   2.456  0.00  0.00    +0.000 C 
ATOM      8  O1  UNL     1       4.198  -1.039   0.079  0.00  0.00    +0.000 OA
ATOM      9  C7  UNL     1       0.647  -0.947  -0.445  0.00  0.00    +0.000 C 
ATOM     10  N2  UNL     1       0.686  -2.214  -0.981  0.00  0.00    +0.000 NA
ATOM     11  C8  UNL     1      -0.422  -2.879  -1.306  0.00  0.00    +0.000 C 
ATOM     12  N3  UNL     1      -1.642  -2.355  -1.130  0.00  0.00    +0.000 NA
ATOM     13  C9  UNL     1      -1.758  -1.132  -0.614  0.00  0.00    +0.000 A 
ATOM     14  C10 UNL     1      -0.623  -0.417  -0.268  0.00  0.00    +0.000 A 
ATOM     15  C11 UNL     1      -1.096   0.766   0.242  0.00  0.00    +0.000 A 
ATOM     16  C12 UNL     1      -2.496   0.714   0.182  0.00  0.00    +0.000 A 
ATOM     17  N4  UNL     1      -2.885  -0.451  -0.344  0.00  0.00    +0.000 N 
ENDROOT
BRANCH  17  18
ATOM     18  C13 UNL     1      -4.240  -0.869  -0.565  0.00  0.00    +0.000 A 
ATOM     19  C14 UNL     1      -5.252  -0.690   0.354  0.00  0.00    +0.000 A 
ATOM     20  C15 UNL     1      -6.554  -1.115   0.089  0.00  0.00    +0.000 A 
ATOM     21  C16 UNL     1      -6.874  -1.729  -1.102  0.00  0.00    +0.000 A 
ATOM     22  F1  UNL     1      -8.152  -2.142  -1.353  0.00  0.00    +0.000 F 
ATOM     23  C17 UNL     1      -5.859  -1.906  -2.019  0.00  0.00    +0.000 A 
ATOM     24  C18 UNL     1      -4.567  -1.484  -1.754  0.00  0.00    +0.000 A 
ENDBRANCH  17  18
BRANCH  15  25
ATOM     25  C19 UNL     1      -0.353   1.905   0.730  0.00  0.00    +0.000 A 
ATOM     26  C20 UNL     1      -0.468   2.336   2.057  0.00  0.00    +0.000 A 
ATOM     27  C21 UNL     1       0.183   3.434   2.527  0.00  0.00    +0.000 A 
ATOM     28  C22 UNL     1       0.988   4.159   1.684  0.00  0.00    +0.000 A 
ATOM     29  C23 UNL     1       1.129   3.776   0.385  0.00  0.00    +0.000 A 
ATOM     30  C24 UNL     1       0.454   2.650  -0.075  0.00  0.00    +0.000 A 
ENDBRANCH  15  25
TORSDOF 2
