REMARK  Name = ./3D_structures\o58_MMV1593541_3D.pdb
REMARK  5 active torsions:
REMARK  status: ('A' for Active; 'I' for Inactive)
REMARK    1  A    between atoms: N1_1  and  C1_2
REMARK    2  A    between atoms: C3_4  and  C20_26
REMARK    3  A    between atoms: C7_9  and  N3_10
REMARK    4  A    between atoms: N3_10  and  C8_11
REMARK    5  A    between atoms: C10_13  and  C12_18
REMARK                            x       y       z     vdW  Elec       q    Type
REMARK                         _______ _______ _______ _____ _____    ______ ____
ROOT
ATOM      1  C1  UNL     1       2.552   0.687   1.156  0.00  0.00    +0.000 A 
ATOM      2  C2  UNL     1       3.931   0.723   1.257  0.00  0.00    +0.000 A 
ATOM      3  C3  UNL     1       4.704   0.186   0.272  0.00  0.00    +0.000 A 
ATOM      4  N2  UNL     1       4.130  -0.394  -0.827  0.00  0.00    +0.000 NA
ATOM      5  C4  UNL     1       2.794  -0.449  -0.963  0.00  0.00    +0.000 A 
ATOM      6  C5  UNL     1       2.206  -1.037  -2.077  0.00  0.00    +0.000 A 
ATOM      7  C6  UNL     1       0.848  -1.098  -2.223  0.00  0.00    +0.000 A 
ATOM      8  C7  UNL     1       0.033  -0.550  -1.220  0.00  0.00    +0.000 A 
ATOM      9  C18 UNL     1       0.635   0.023  -0.132  0.00  0.00    +0.000 A 
ATOM     10  C19 UNL     1       2.007   0.091   0.029  0.00  0.00    +0.000 A 
ENDROOT
BRANCH   3  11
ATOM     11  C20 UNL     1       6.152   0.218   0.366  0.00  0.00    +0.000 A 
ATOM     12  C21 UNL     1       6.888  -0.350  -0.677  0.00  0.00    +0.000 A 
ATOM     13  C22 UNL     1       8.246  -0.332  -0.611  0.00  0.00    +0.000 A 
ATOM     14  C23 UNL     1       8.925   0.230   0.457  0.00  0.00    +0.000 A 
ATOM     15  F1  UNL     1      10.287   0.231   0.492  0.00  0.00    +0.000 F 
ATOM     16  C24 UNL     1       8.213   0.790   1.487  0.00  0.00    +0.000 A 
ATOM     17  C25 UNL     1       6.826   0.770   1.415  0.00  0.00    +0.000 A 
ENDBRANCH   3  11
BRANCH   1  18
ATOM     18  N1  UNL     1       1.692   1.220   2.133  0.00  0.00    +0.000 N 
ATOM     19  H1  UNL     1       1.727   0.901   3.137  0.00  0.00    +0.000 HD
ATOM     20  H2  UNL     1       1.007   1.955   1.823  0.00  0.00    +0.000 HD
ENDBRANCH   1  18
BRANCH   8  21
ATOM     21  N3  UNL     1      -1.354  -0.623  -1.389  0.00  0.00    +0.000 N 
ATOM     22  H6  UNL     1      -1.712  -1.095  -2.279  0.00  0.00    +0.000 HD
BRANCH  21  23
ATOM     23  C8  UNL     1      -2.375  -0.153  -0.536  0.00  0.00    +0.000 C 
ATOM     24  C9  UNL     1      -3.730  -0.320  -0.880  0.00  0.00    +0.000 C 
ATOM     25  C10 UNL     1      -4.763   0.114  -0.095  0.00  0.00    +0.000 C 
ATOM     26  N4  UNL     1      -4.450   0.733   1.069  0.00  0.00    +0.000 NA
ATOM     27  C11 UNL     1      -3.168   0.908   1.426  0.00  0.00    +0.000 C 
ATOM     28  N5  UNL     1      -2.899   1.563   2.657  0.00  0.00    +0.000 N 
ATOM     29  N6  UNL     1      -2.183   0.469   0.631  0.00  0.00    +0.000 NA
ATOM     30  H8  UNL     1      -1.975   1.361   3.137  0.00  0.00    +0.000 HD
ATOM     31  H9  UNL     1      -3.540   2.218   3.114  0.00  0.00    +0.000 HD
BRANCH  25  32
ATOM     32  C12 UNL     1      -6.166  -0.055  -0.446  0.00  0.00    +0.000 A 
ATOM     33  C13 UNL     1      -7.152   0.414   0.407  0.00  0.00    +0.000 A 
ATOM     34  C14 UNL     1      -8.489   0.272   0.109  0.00  0.00    +0.000 A 
ATOM     35  C15 UNL     1      -8.915  -0.342  -1.049  0.00  0.00    +0.000 A 
ATOM     36  C16 UNL     1      -7.945  -0.813  -1.905  0.00  0.00    +0.000 A 
ATOM     37  C17 UNL     1      -6.585  -0.667  -1.599  0.00  0.00    +0.000 A 
ENDBRANCH  25  32
ENDBRANCH  21  23
ENDBRANCH   8  21
TORSDOF 5
