REMARK  Name = ./3D_structures\o59_MMV1593537_3D.pdb
REMARK  3 active torsions:
REMARK  status: ('A' for Active; 'I' for Inactive)
REMARK    1  A    between atoms: C4_5  and  C7_8
REMARK    2  A    between atoms: C8_10  and  C16_20
REMARK    3  A    between atoms: C9_12  and  C10_13
REMARK                            x       y       z     vdW  Elec       q    Type
REMARK                         _______ _______ _______ _____ _____    ______ ____
ROOT
ATOM      1  C7  UNL     1      -0.948  -0.817  -0.423  0.00  0.00    +0.000 A 
ATOM      2  N1  UNL     1       0.249  -1.208  -0.867  0.00  0.00    +0.000 NA
ATOM      3  C8  UNL     1       1.250  -0.403  -0.377  0.00  0.00    +0.000 A 
ATOM      4  N2  UNL     1       0.629   0.475   0.370  0.00  0.00    +0.000 N 
ATOM      5  C9  UNL     1      -0.727   0.267   0.378  0.00  0.00    +0.000 A 
ATOM      6  H5  UNL     1       1.026   1.257   0.924  0.00  0.00    +0.000 HD
ENDROOT
BRANCH   3   7
ATOM      7  C16 UNL     1       2.646  -0.618  -0.729  0.00  0.00    +0.000 A 
ATOM      8  C17 UNL     1       3.117  -1.672  -1.521  0.00  0.00    +0.000 A 
ATOM      9  N3  UNL     1       4.436  -1.545  -1.638  0.00  0.00    +0.000 N 
ATOM     10  C18 UNL     1       4.862  -0.455  -0.960  0.00  0.00    +0.000 A 
ATOM     11  C19 UNL     1       6.113   0.101  -0.777  0.00  0.00    +0.000 A 
ATOM     12  C20 UNL     1       6.288   1.241  -0.030  0.00  0.00    +0.000 A 
ATOM     13  C21 UNL     1       5.202   1.846   0.550  0.00  0.00    +0.000 A 
ATOM     14 BR1  UNL     1       5.403   3.444   1.607  0.00  0.00    +0.000 Br
ATOM     15  C22 UNL     1       3.958   1.267   0.351  0.00  0.00    +0.000 A 
ATOM     16  C23 UNL     1       3.737   0.128  -0.389  0.00  0.00    +0.000 A 
ATOM     17  H11 UNL     1       5.066  -2.187  -2.176  0.00  0.00    +0.000 HD
ENDBRANCH   3   7
BRANCH   1  22
ATOM     18  F1  UNL     1      -5.867  -3.212  -1.698  0.00  0.00    +0.000 F 
ATOM     19  C1  UNL     1      -4.674  -2.628  -1.401  0.00  0.00    +0.000 A 
ATOM     20  C2  UNL     1      -3.861  -2.095  -2.379  0.00  0.00    +0.000 A 
ATOM     21  C3  UNL     1      -2.643  -1.505  -2.040  0.00  0.00    +0.000 A 
ATOM     22  C4  UNL     1      -2.221  -1.436  -0.738  0.00  0.00    +0.000 A 
ATOM     23  C5  UNL     1      -3.015  -1.961   0.248  0.00  0.00    +0.000 A 
ATOM     24  C6  UNL     1      -4.225  -2.547  -0.097  0.00  0.00    +0.000 A 
ENDBRANCH   1  22
BRANCH   5  25
ATOM     25  C10 UNL     1      -1.724   1.048   1.086  0.00  0.00    +0.000 A 
ATOM     26  C11 UNL     1      -1.914   1.002   2.450  0.00  0.00    +0.000 A 
ATOM     27  C12 UNL     1      -2.874   1.774   3.098  0.00  0.00    +0.000 A 
ATOM     28  C13 UNL     1      -3.687   2.633   2.373  0.00  0.00    +0.000 A 
ATOM     29  F2  UNL     1      -4.613   3.372   3.048  0.00  0.00    +0.000 F 
ATOM     30  C14 UNL     1      -3.515   2.695   1.003  0.00  0.00    +0.000 A 
ATOM     31  C15 UNL     1      -2.559   1.923   0.376  0.00  0.00    +0.000 A 
ENDBRANCH   5  25
TORSDOF 3
