REMARK  Name = ./3D_structures\o5_MMV1578557_3D.pdb
REMARK  8 active torsions:
REMARK  status: ('A' for Active; 'I' for Inactive)
REMARK    1  A    between atoms: C1_1  and  C2_2
REMARK    2  A    between atoms: C3_3  and  N1_4
REMARK    3  A    between atoms: C7_8  and  C8_9
REMARK    4  A    between atoms: C8_9  and  N2_10
REMARK    5  A    between atoms: C11_13  and  O2_17
REMARK    6  A    between atoms: O2_17  and  C14_18
REMARK    7  A    between atoms: C14_18  and  C15_19
REMARK    8  A    between atoms: C15_19  and  C16_20
REMARK                            x       y       z     vdW  Elec       q    Type
REMARK                         _______ _______ _______ _____ _____    ______ ____
ROOT
ATOM      1  N2  UNL     1      -1.398  -0.176  -1.168  0.00  0.00    +0.000 N 
ATOM      2  C9  UNL     1      -0.966  -0.977  -0.195  0.00  0.00    +0.000 A 
ATOM      3  C10 UNL     1       0.389  -0.968   0.181  0.00  0.00    +0.000 A 
ATOM      4  C11 UNL     1       1.320  -0.152  -0.419  0.00  0.00    +0.000 A 
ATOM      5  C12 UNL     1       0.795   0.705  -1.471  0.00  0.00    +0.000 A 
ATOM      6  C13 UNL     1      -0.509   0.643  -1.777  0.00  0.00    +0.000 A 
ATOM      7  O1  UNL     1      -0.938   1.428  -2.711  0.00  0.00    +0.000 OA
ENDROOT
BRANCH   1   8
ATOM      8  C8  UNL     1      -2.742  -0.081  -1.634  0.00  0.00    +0.000 C 
BRANCH   8  15
ATOM      9  C1  UNL     1      -4.903  -1.506  -0.357  0.00  0.00    +0.000 C 
ATOM     10  C2  UNL     1      -4.707  -0.026  -0.121  0.00  0.00    +0.000 A 
ATOM     11  C3  UNL     1      -5.573   0.588   0.732  0.00  0.00    +0.000 A 
ATOM     12  C4  UNL     1      -5.464   1.977   0.953  0.00  0.00    +0.000 A 
ATOM     13  C5  UNL     1      -4.475   2.672   0.290  0.00  0.00    +0.000 A 
ATOM     14  C6  UNL     1      -3.620   2.023  -0.559  0.00  0.00    +0.000 A 
ATOM     15  C7  UNL     1      -3.699   0.656  -0.801  0.00  0.00    +0.000 A 
BRANCH  11  16
ATOM     16  N1  UNL     1      -6.616  -0.136   1.379  0.00  0.00    +0.000 N 
ATOM     17  H4  UNL     1      -6.640  -0.173   2.410  0.00  0.00    +0.000 HD
ATOM     18  H5  UNL     1      -7.339  -0.615   0.824  0.00  0.00    +0.000 HD
ENDBRANCH  11  16
ENDBRANCH   8  15
ENDBRANCH   1   8
BRANCH   4  19
ATOM     19  O2  UNL     1       2.578  -0.038  -0.175  0.00  0.00    +0.000 OA
BRANCH  19  20
ATOM     20  C14 UNL     1       3.848   0.075   0.075  0.00  0.00    +0.000 C 
BRANCH  20  21
ATOM     21  C15 UNL     1       4.673  -1.202  -0.101  0.00  0.00    +0.000 C 
BRANCH  21  22
ATOM     22  C16 UNL     1       6.115  -0.920  -0.029  0.00  0.00    +0.000 A 
ATOM     23  C17 UNL     1       6.849   0.217   0.017  0.00  0.00    +0.000 A 
ATOM     24  C18 UNL     1       8.188   0.115   0.060  0.00  0.00    +0.000 A 
ATOM     25  C19 UNL     1       8.802  -1.071   0.060  0.00  0.00    +0.000 A 
ATOM     26  S1  UNL     1       7.372  -2.216  -0.011  0.00  0.00    +0.000 S 
ENDBRANCH  21  22
ENDBRANCH  20  21
ENDBRANCH  19  20
ENDBRANCH   4  19
TORSDOF 7
