REMARK  Name = ./3D_structures\o60_MMV1582492_3D.pdb
REMARK  5 active torsions:
REMARK  status: ('A' for Active; 'I' for Inactive)
REMARK    1  A    between atoms: C1_1  and  N1_2
REMARK    2  A    between atoms: C2_3  and  C16_20
REMARK    3  A    between atoms: N2_4  and  C10_14
REMARK    4  A    between atoms: C19_23  and  C20_25
REMARK    5  A    between atoms: C22_28  and  C23_29
REMARK                            x       y       z     vdW  Elec       q    Type
REMARK                         _______ _______ _______ _____ _____    ______ ____
ROOT
ATOM      1  C1  UNL     1      -0.432  -2.250   2.321  0.00  0.00    +0.000 C 
ATOM      2  N1  UNL     1      -1.442  -1.447   1.634  0.00  0.00    +0.000 N 
ATOM      3  C2  UNL     1      -1.156  -0.155   1.127  0.00  0.00    +0.000 C 
ATOM      4  N2  UNL     1      -2.037   0.336   0.108  0.00  0.00    +0.000 N 
ATOM      5  C3  UNL     1      -3.320  -0.249  -0.023  0.00  0.00    +0.000 C 
ATOM      6  O1  UNL     1      -4.201   0.256  -0.760  0.00  0.00    +0.000 OA
ATOM      7  C4  UNL     1      -3.679  -1.473   0.698  0.00  0.00    +0.000 A 
ATOM      8  C5  UNL     1      -4.930  -2.044   0.569  0.00  0.00    +0.000 A 
ATOM      9  C6  UNL     1      -5.252  -3.187   1.245  0.00  0.00    +0.000 A 
ATOM     10  F1  UNL     1      -6.491  -3.765   1.127  0.00  0.00    +0.000 F 
ATOM     11  C7  UNL     1      -4.288  -3.770   2.073  0.00  0.00    +0.000 A 
ATOM     12  C8  UNL     1      -3.042  -3.208   2.206  0.00  0.00    +0.000 A 
ATOM     13  C9  UNL     1      -2.720  -2.032   1.506  0.00  0.00    +0.000 A 
ENDROOT
BRANCH   4  14
ATOM     14  C10 UNL     1      -1.594   1.391  -0.736  0.00  0.00    +0.000 A 
ATOM     15  C11 UNL     1      -1.252   2.624  -0.214  0.00  0.00    +0.000 A 
ATOM     16  C12 UNL     1      -0.814   3.674  -0.995  0.00  0.00    +0.000 A 
ATOM     17  C13 UNL     1      -0.705   3.514  -2.358  0.00  0.00    +0.000 A 
ATOM     18  C14 UNL     1      -1.041   2.294  -2.901  0.00  0.00    +0.000 A 
ATOM     19  C15 UNL     1      -1.478   1.251  -2.104  0.00  0.00    +0.000 A 
ENDBRANCH   4  14
BRANCH   3  20
ATOM     20  C16 UNL     1       0.220  -0.042   0.564  0.00  0.00    +0.000 A 
ATOM     21  C17 UNL     1       0.879  -0.915  -0.274  0.00  0.00    +0.000 A 
ATOM     22  C18 UNL     1       2.125  -0.583  -0.645  0.00  0.00    +0.000 A 
ATOM     23  C19 UNL     1       2.673   0.554  -0.202  0.00  0.00    +0.000 A 
ATOM     24  S1  UNL     1       1.371   1.226   0.808  0.00  0.00    +0.000 S 
BRANCH  23  25
ATOM     25  C20 UNL     1       3.979   1.164  -0.432  0.00  0.00    +0.000 A 
ATOM     26  C21 UNL     1       4.321   2.385   0.157  0.00  0.00    +0.000 A 
ATOM     27  S2  UNL     1       6.004   2.660  -0.456  0.00  0.00    +0.000 S 
ATOM     28  C22 UNL     1       5.979   1.049  -1.432  0.00  0.00    +0.000 A 
ATOM     29  C23 UNL     1       7.246   0.718  -2.226  0.00  0.00    +0.000 C 
ATOM     30  N3  UNL     1       4.928   0.660  -1.183  0.00  0.00    +0.000 NA
ENDBRANCH  23  25
ENDBRANCH   3  20
TORSDOF 3
