REMARK  Name = ./3D_structures\o61_MMV1582491_3D.pdb
REMARK  6 active torsions:
REMARK  status: ('A' for Active; 'I' for Inactive)
REMARK    1  A    between atoms: C1_2  and  C2_5
REMARK    2  A    between atoms: C2_5  and  C3_6
REMARK    3  A    between atoms: C3_6  and  C4_7
REMARK    4  A    between atoms: C4_7  and  C5_8
REMARK    5  A    between atoms: C8_13  and  C11_16
REMARK    6  A    between atoms: C12_19  and  C13_21
REMARK                            x       y       z     vdW  Elec       q    Type
REMARK                         _______ _______ _______ _____ _____    ______ ____
ROOT
ATOM      1  C5  UNL     1      -2.763  -0.657  -0.005  0.00  0.00    +0.000 C 
ATOM      2  O1  UNL     1      -3.462  -0.898  -1.031  0.00  0.00    +0.000 OA
ATOM      3  N1  UNL     1      -1.380  -0.284  -0.122  0.00  0.00    +0.000 N 
ATOM      4  C6  UNL     1      -0.838  -0.200  -1.438  0.00  0.00    +0.000 C 
ATOM      5  C7  UNL     1       0.635  -0.150  -1.535  0.00  0.00    +0.000 C 
ATOM      6  C8  UNL     1       1.422  -0.347  -0.298  0.00  0.00    +0.000 C 
ATOM      7  C9  UNL     1       0.795   0.010   0.996  0.00  0.00    +0.000 C 
ATOM      8  C10 UNL     1      -0.673  -0.032   1.088  0.00  0.00    +0.000 C 
ENDROOT
BRANCH   6   9
ATOM      9  C11 UNL     1       2.713   0.387  -0.439  0.00  0.00    +0.000 A 
ATOM     10  O2  UNL     1       2.823   1.692  -0.536  0.00  0.00    +0.000 OA
ATOM     11  N2  UNL     1       4.079   2.027  -0.647  0.00  0.00    +0.000 NA
ATOM     12  C12 UNL     1       4.831   0.936  -0.625  0.00  0.00    +0.000 A 
ATOM     13  N3  UNL     1       3.970  -0.085  -0.494  0.00  0.00    +0.000 NA
BRANCH  12  14
ATOM     14  C13 UNL     1       6.316   0.871  -0.725  0.00  0.00    +0.000 A 
ATOM     15  N4  UNL     1       7.253   1.489  -0.833  0.00  0.00    +0.000 NA
ATOM     16  C14 UNL     1       8.533   1.106  -0.896  0.00  0.00    +0.000 A 
ATOM     17  C15 UNL     1       8.709  -0.205  -0.819  0.00  0.00    +0.000 A 
ATOM     18  S1  UNL     1       7.111  -0.882  -0.660  0.00  0.00    +0.000 S 
ENDBRANCH  12  14
ENDBRANCH   6   9
BRANCH   1  19
ATOM     19  C4  UNL     1      -3.417  -0.774   1.316  0.00  0.00    +0.000 C 
BRANCH  19  20
ATOM     20  C3  UNL     1      -4.907  -0.895   1.242  0.00  0.00    +0.000 C 
BRANCH  20  21
ATOM     21  C2  UNL     1      -5.500   0.329   0.624  0.00  0.00    +0.000 C 
BRANCH  21  23
ATOM     22  F1  UNL     1      -7.471   1.411  -0.045  0.00  0.00    +0.000 F 
ATOM     23  C1  UNL     1      -7.018   0.236   0.538  0.00  0.00    +0.000 C 
ATOM     24  F2  UNL     1      -7.579   0.164   1.787  0.00  0.00    +0.000 F 
ATOM     25  F3  UNL     1      -7.397  -0.801  -0.273  0.00  0.00    +0.000 F 
ENDBRANCH  21  23
ENDBRANCH  20  21
ENDBRANCH  19  20
ENDBRANCH   1  19
TORSDOF 6
