REMARK  Name = ./3D_structures\o62_MMV1582382_3D.pdb
REMARK  8 active torsions:
REMARK  status: ('A' for Active; 'I' for Inactive)
REMARK    1  A    between atoms: S1_1  and  C1_2
REMARK    2  A    between atoms: S1_1  and  C10_16
REMARK    3  A    between atoms: C2_3  and  C9_13
REMARK    4  A    between atoms: C4_7  and  C7_10
REMARK    5  A    between atoms: C7_10  and  O2_11
REMARK    6  A    between atoms: C7_10  and  C8_12
REMARK    7  A    between atoms: C9_13  and  O4_15
REMARK    8  A    between atoms: C12_19  and  C13_21
REMARK                            x       y       z     vdW  Elec       q    Type
REMARK                         _______ _______ _______ _____ _____    ______ ____
ROOT
ATOM      1  C1  UNL     1       0.642   0.400   0.279  0.00  0.00    +0.000 C 
ATOM      2  C2  UNL     1       1.371   1.481   0.034  0.00  0.00    +0.000 C 
ATOM      3  N1  UNL     1       2.701   1.117  -0.365  0.00  0.00    +0.000 N 
ATOM      4  C3  UNL     1       4.081   1.119  -0.591  0.00  0.00    +0.000 C 
ATOM      5  O1  UNL     1       5.082   1.868  -0.593  0.00  0.00    +0.000 OA
ATOM      6  C4  UNL     1       3.974  -0.351  -0.893  0.00  0.00    +0.000 C 
ATOM      7  C5  UNL     1       2.490  -0.211  -0.985  0.00  0.00    +0.000 C 
ATOM      8  C6  UNL     1       1.628  -0.790   0.073  0.00  0.00    +0.000 C 
ENDROOT
BRANCH   6   9
ATOM      9  C7  UNL     1       4.550  -1.239   0.152  0.00  0.00    +0.000 C 
ATOM     10  C8  UNL     1       4.500  -2.695  -0.202  0.00  0.00    +0.000 C 
BRANCH   9  11
ATOM     11  O2  UNL     1       5.922  -0.903   0.260  0.00  0.00    +0.000 OA
ATOM     12  H6  UNL     1       6.412  -1.443  -0.424  0.00  0.00    +0.000 HD
ENDBRANCH   9  11
ENDBRANCH   6   9
BRANCH   2  13
ATOM     13  C9  UNL     1       0.959   2.874   0.159  0.00  0.00    +0.000 C 
ATOM     14  O3  UNL     1      -0.166   3.227   0.532  0.00  0.00    +0.000 OA
BRANCH  13  15
ATOM     15  O4  UNL     1       1.878   3.901  -0.156  0.00  0.00    +0.000 OA
ATOM     16  H10 UNL     1       1.498   4.837  -0.312  0.00  0.00    +0.000 HD
ENDBRANCH  13  15
ENDBRANCH   2  13
BRANCH   1  17
ATOM     17  S1  UNL     1      -0.982   0.121   0.777  0.00  0.00    +0.000 S 
BRANCH  17  18
ATOM     18  C10 UNL     1      -2.231   1.292   0.926  0.00  0.00    +0.000 C 
ATOM     19  C11 UNL     1      -3.523   0.510   1.401  0.00  0.00    +0.000 C 
ATOM     20  N2  UNL     1      -3.982  -0.109   0.184  0.00  0.00    +0.000 N 
ATOM     21  C12 UNL     1      -4.729  -1.303   0.119  0.00  0.00    +0.000 C 
ATOM     22  N3  UNL     1      -5.219  -1.807   1.190  0.00  0.00    +0.000 NA
ATOM     23  C13 UNL     1      -4.947  -1.978  -1.199  0.00  0.00    +0.000 C 
ATOM     24  C14 UNL     1      -3.569   0.668  -0.964  0.00  0.00    +0.000 C 
ATOM     25  C15 UNL     1      -2.823   1.836  -0.364  0.00  0.00    +0.000 C 
ATOM     26  H14 UNL     1      -5.066  -1.339   2.096  0.00  0.00    +0.000 HD
ENDBRANCH  17  18
ENDBRANCH   1  17
TORSDOF 6
