REMARK  Name = ./3D_structures\o63_MMV002354_3D.pdb
REMARK  4 active torsions:
REMARK  status: ('A' for Active; 'I' for Inactive)
REMARK    1  A    between atoms: C1_1  and  C2_2
REMARK    2  A    between atoms: C3_4  and  P1_5
REMARK    3  A    between atoms: P1_5  and  O3_7
REMARK    4  A    between atoms: P1_5  and  O4_8
REMARK                            x       y       z     vdW  Elec       q    Type
REMARK                         _______ _______ _______ _____ _____    ______ ____
ROOT
ATOM      1  P1  UNL     1      -1.317  -0.044  -0.364  0.00  0.00    +0.000 P 
ATOM      2  O2  UNL     1      -0.629  -0.622  -1.576  0.00  0.00    +0.000 OA
ENDROOT
BRANCH   1   6
ATOM      3  C1  UNL     1       1.897   0.084  -0.585  0.00  0.00    +0.000 C 
ATOM      4  C2  UNL     1       1.287  -0.023   0.808  0.00  0.00    +0.000 C 
ATOM      5  O1  UNL     1       0.577  -1.176   1.123  0.00  0.00    +0.000 OA
ATOM      6  C3  UNL     1      -0.126   0.127   0.965  0.00  0.00    +0.000 C 
ENDBRANCH   1   6
BRANCH   1   7
ATOM      7  O3  UNL     1      -2.034   1.398  -0.778  0.00  0.00    +0.000 OA
ATOM      8  H6  UNL     1      -2.077   2.062  -0.055  0.00  0.00    +0.000 HD
ENDBRANCH   1   7
BRANCH   1   9
ATOM      9  O4  UNL     1      -2.540  -1.104   0.197  0.00  0.00    +0.000 OA
ATOM     10  H7  UNL     1      -2.695  -1.787  -0.474  0.00  0.00    +0.000 HD
ENDBRANCH   1   9
TORSDOF 3
