REMARK  Name = ./3D_structures\o64_MMV1581557_3D.pdb
REMARK  11 active torsions:
REMARK  status: ('A' for Active; 'I' for Inactive)
REMARK    1  A    between atoms: O1_1  and  C1_2
REMARK    2  A    between atoms: C1_2  and  C2_4
REMARK    3  A    between atoms: C2_4  and  C3_5
REMARK    4  A    between atoms: C2_4  and  N1_12
REMARK    5  A    between atoms: C3_5  and  C4_6
REMARK    6  A    between atoms: C10_13  and  C11_15
REMARK    7  A    between atoms: C11_15  and  C12_16
REMARK    8  A    between atoms: C11_15  and  N2_19
REMARK    9  A    between atoms: C12_16  and  C13_17
REMARK   10  A    between atoms: C13_17  and  S1_18
REMARK   11  A    between atoms: C14_20  and  C15_22
REMARK                            x       y       z     vdW  Elec       q    Type
REMARK                         _______ _______ _______ _____ _____    ______ ____
ROOT
ATOM      1  C11 UNL     1       0.661  -0.752  -1.200  0.00  0.00    +0.000 C 
ENDROOT
BRANCH   1   3
ATOM      2  N1  UNL     1      -1.870  -0.425  -1.214  0.00  0.00    +0.000 N 
ATOM      3  C10 UNL     1      -0.584  -0.100  -0.721  0.00  0.00    +0.000 C 
ATOM      4  O3  UNL     1      -0.549   0.806   0.180  0.00  0.00    +0.000 OA
ATOM      5  H10 UNL     1      -1.979  -1.150  -1.947  0.00  0.00    +0.000 HD
BRANCH   2   6
ATOM      6  C2  UNL     1      -3.093   0.235  -0.723  0.00  0.00    +0.000 C 
BRANCH   6   7
ATOM      7  C1  UNL     1      -3.811   0.896  -1.827  0.00  0.00    +0.000 C 
ATOM      8  O2  UNL     1      -3.383   0.854  -3.015  0.00  0.00    +0.000 OA
BRANCH   7   9
ATOM      9  O1  UNL     1      -4.978   1.579  -1.580  0.00  0.00    +0.000 OA
ATOM     10  H1  UNL     1      -5.213   2.410  -2.142  0.00  0.00    +0.000 HD
ENDBRANCH   7   9
ENDBRANCH   6   7
BRANCH   6  11
ATOM     11  C3  UNL     1      -3.888  -0.875  -0.066  0.00  0.00    +0.000 C 
BRANCH  11  12
ATOM     12  C4  UNL     1      -5.158  -0.438   0.519  0.00  0.00    +0.000 A 
ATOM     13  C5  UNL     1      -5.226   0.000   1.822  0.00  0.00    +0.000 A 
ATOM     14  C6  UNL     1      -6.441   0.401   2.337  0.00  0.00    +0.000 A 
ATOM     15  C7  UNL     1      -7.576   0.369   1.572  0.00  0.00    +0.000 A 
ATOM     16  C8  UNL     1      -7.506  -0.073   0.258  0.00  0.00    +0.000 A 
ATOM     17  C9  UNL     1      -6.292  -0.474  -0.260  0.00  0.00    +0.000 A 
ENDBRANCH  11  12
ENDBRANCH   6  11
ENDBRANCH   2   6
ENDBRANCH   1   3
BRANCH   1  18
ATOM     18  N2  UNL     1       1.825  -0.245  -0.546  0.00  0.00    +0.000 N 
ATOM     19  C14 UNL     1       2.644  -1.033   0.302  0.00  0.00    +0.000 C 
ATOM     20  O4  UNL     1       2.361  -2.260   0.515  0.00  0.00    +0.000 OA
ATOM     21  H17 UNL     1       2.094   0.750  -0.691  0.00  0.00    +0.000 HD
BRANCH  19  22
ATOM     22  C15 UNL     1       3.812  -0.449   0.934  0.00  0.00    +0.000 A 
ATOM     23  C16 UNL     1       4.212   0.854   0.777  0.00  0.00    +0.000 A 
ATOM     24  C17 UNL     1       5.353   1.047   1.523  0.00  0.00    +0.000 A 
ATOM     25  C18 UNL     1       6.158   2.176   1.712  0.00  0.00    +0.000 A 
ATOM     26  C19 UNL     1       7.264   2.097   2.525  0.00  0.00    +0.000 A 
ATOM     27  C20 UNL     1       7.544   0.892   3.130  0.00  0.00    +0.000 A 
ATOM     28  C21 UNL     1       6.753  -0.221   2.945  0.00  0.00    +0.000 A 
ATOM     29  C22 UNL     1       5.626  -0.157   2.123  0.00  0.00    +0.000 A 
ATOM     30  N3  UNL     1       4.689  -1.042   1.757  0.00  0.00    +0.000 N 
ATOM     31  H23 UNL     1       4.657  -2.054   2.076  0.00  0.00    +0.000 HD
ENDBRANCH  19  22
ENDBRANCH   1  18
BRANCH   1  32
ATOM     32  C12 UNL     1       0.734  -0.724  -2.702  0.00  0.00    +0.000 C 
BRANCH  32  33
ATOM     33  C13 UNL     1       1.977  -1.372  -3.241  0.00  0.00    +0.000 C 
BRANCH  33  34
ATOM     34  S1  UNL     1       1.973  -1.289  -5.053  0.00  0.00    +0.000 S 
ATOM     35  H16 UNL     1       2.538  -0.084  -5.452  0.00  0.00    +0.000 HD
ENDBRANCH  33  34
ENDBRANCH  32  33
ENDBRANCH   1  32
TORSDOF 11
