REMARK  Name = ./3D_structures\o65_MMV1581554_3D.pdb
REMARK  4 active torsions:
REMARK  status: ('A' for Active; 'I' for Inactive)
REMARK    1  A    between atoms: N1_1  and  C1_2
REMARK    2  A    between atoms: C3_4  and  N2_5
REMARK    3  A    between atoms: C5_8  and  C15_21
REMARK    4  A    between atoms: N4_10  and  C7_11
REMARK                            x       y       z     vdW  Elec       q    Type
REMARK                         _______ _______ _______ _____ _____    ______ ____
ROOT
ATOM      1  C1  UNL     1      -3.674  -2.509  -0.019  0.00  0.00    +0.000 A 
ATOM      2  C2  UNL     1      -4.436  -1.369   0.057  0.00  0.00    +0.000 A 
ATOM      3  C3  UNL     1      -3.760  -0.158   0.101  0.00  0.00    +0.000 A 
ATOM      4  C4  UNL     1      -2.382  -0.113   0.068  0.00  0.00    +0.000 A 
ATOM      5  N3  UNL     1      -1.726   1.050   0.108  0.00  0.00    +0.000 NA
ATOM      6  C5  UNL     1      -0.361   1.158   0.079  0.00  0.00    +0.000 A 
ATOM      7  C6  UNL     1       0.388  -0.005   0.005  0.00  0.00    +0.000 A 
ATOM      8  N4  UNL     1       1.787   0.078   0.011  0.00  0.00    +0.000 N 
ATOM      9  N5  UNL     1      -0.287  -1.160  -0.036  0.00  0.00    +0.000 NA
ATOM     10  C13 UNL     1      -1.620  -1.261  -0.008  0.00  0.00    +0.000 A 
ATOM     11  C14 UNL     1      -2.286  -2.468  -0.052  0.00  0.00    +0.000 A 
ATOM     12  H6  UNL     1       2.270   1.014   0.104  0.00  0.00    +0.000 HD
ENDROOT
BRANCH   8  13
ATOM     13  C7  UNL     1       2.655  -1.035  -0.070  0.00  0.00    +0.000 A 
ATOM     14  C8  UNL     1       4.005  -0.778  -0.408  0.00  0.00    +0.000 A 
ATOM     15  C9  UNL     1       4.872  -1.827  -0.478  0.00  0.00    +0.000 A 
ATOM     16  C10 UNL     1       4.505  -3.146  -0.235  0.00  0.00    +0.000 A 
ATOM     17  F1  UNL     1       5.401  -4.144  -0.318  0.00  0.00    +0.000 F 
ATOM     18  C11 UNL     1       3.184  -3.362   0.092  0.00  0.00    +0.000 A 
ATOM     19  C12 UNL     1       2.274  -2.325   0.174  0.00  0.00    +0.000 A 
ENDBRANCH   8  13
BRANCH   6  20
ATOM     20  C15 UNL     1       0.256   2.473   0.132  0.00  0.00    +0.000 A 
ATOM     21  C16 UNL     1      -0.101   3.345   1.152  0.00  0.00    +0.000 A 
ATOM     22  C17 UNL     1       0.399   4.619   1.261  0.00  0.00    +0.000 A 
ATOM     23  C18 UNL     1       1.299   5.050   0.309  0.00  0.00    +0.000 A 
ATOM     24  C19 UNL     1       1.667   4.201  -0.714  0.00  0.00    +0.000 A 
ATOM     25  C20 UNL     1       1.153   2.922  -0.806  0.00  0.00    +0.000 A 
ENDBRANCH   6  20
BRANCH   1  26
ATOM     26  N1  UNL     1      -4.314  -3.781  -0.066  0.00  0.00    +0.000 N 
ATOM     27  H1  UNL     1      -3.808  -4.645  -0.375  0.00  0.00    +0.000 HD
ATOM     28  H2  UNL     1      -5.327  -3.878   0.215  0.00  0.00    +0.000 HD
ENDBRANCH   1  26
BRANCH   3  29
ATOM     29  N2  UNL     1      -4.515   1.052   0.180  0.00  0.00    +0.000 N 
ATOM     30  H4  UNL     1      -5.101   1.401  -0.620  0.00  0.00    +0.000 HD
ATOM     31  H5  UNL     1      -4.499   1.631   1.062  0.00  0.00    +0.000 HD
ENDBRANCH   3  29
TORSDOF 4
