REMARK  Name = ./3D_structures\o66_MMV1581550_3D.pdb
REMARK  6 active torsions:
REMARK  status: ('A' for Active; 'I' for Inactive)
REMARK    1  A    between atoms: O1_1  and  C1_2
REMARK    2  A    between atoms: C2_4  and  C3_5
REMARK    3  A    between atoms: C3_5  and  S1_6
REMARK    4  A    between atoms: S1_6  and  C4_7
REMARK    5  A    between atoms: C10_14  and  O3_15
REMARK    6  A    between atoms: C11_16  and  O4_17
REMARK                            x       y       z     vdW  Elec       q    Type
REMARK                         _______ _______ _______ _____ _____    ______ ____
ROOT
ATOM      1  C1  UNL     1      -3.462   1.063  -0.270  0.00  0.00    +0.000 C 
ATOM      2  O2  UNL     1      -2.060   1.206  -0.332  0.00  0.00    +0.000 OA
ATOM      3  C2  UNL     1      -1.596   0.112   0.375  0.00  0.00    +0.000 C 
ATOM      4  C10 UNL     1      -2.382  -1.024  -0.292  0.00  0.00    +0.000 C 
ATOM      5  C11 UNL     1      -3.721  -0.415  -0.485  0.00  0.00    +0.000 C 
ENDROOT
BRANCH   1   6
ATOM      6  O1  UNL     1      -4.005   1.832  -1.271  0.00  0.00    +0.000 OA
ATOM      7  H1  UNL     1      -3.632   2.755  -1.167  0.00  0.00    +0.000 HD
ENDBRANCH   1   6
BRANCH   4   8
ATOM      8  O3  UNL     1      -2.343  -2.106   0.541  0.00  0.00    +0.000 OA
ATOM      9  H11 UNL     1      -2.672  -2.937   0.132  0.00  0.00    +0.000 HD
ENDBRANCH   4   8
BRANCH   5  10
ATOM     10  O4  UNL     1      -4.685  -0.841   0.390  0.00  0.00    +0.000 OA
ATOM     11  H13 UNL     1      -4.643  -1.809   0.598  0.00  0.00    +0.000 HD
ENDBRANCH   5  10
BRANCH   3  12
ATOM     12  C3  UNL     1      -0.143  -0.172   0.135  0.00  0.00    +0.000 C 
BRANCH  12  13
ATOM     13  S1  UNL     1       0.930   1.191   0.599  0.00  0.00    +0.000 S 
BRANCH  13  14
ATOM     14  C4  UNL     1       2.625   0.700   0.253  0.00  0.00    +0.000 A 
ATOM     15  C5  UNL     1       3.664   1.563   0.516  0.00  0.00    +0.000 A 
ATOM     16  C6  UNL     1       4.967   1.197   0.255  0.00  0.00    +0.000 A 
ATOM     17  C7  UNL     1       5.236  -0.052  -0.277  0.00  0.00    +0.000 A 
ATOM     18  F1  UNL     1       6.499  -0.417  -0.534  0.00  0.00    +0.000 F 
ATOM     19  C8  UNL     1       4.218  -0.947  -0.555  0.00  0.00    +0.000 A 
ATOM     20  C9  UNL     1       2.933  -0.534  -0.276  0.00  0.00    +0.000 A 
ENDBRANCH  13  14
ENDBRANCH  12  13
ENDBRANCH   3  12
TORSDOF 6
