REMARK  Name = ./3D_structures\o67_MMV1581546_3D.pdb
REMARK  2 active torsions:
REMARK  status: ('A' for Active; 'I' for Inactive)
REMARK    1  A    between atoms: C4_7  and  N2_8
REMARK    2  A    between atoms: N2_8  and  C5_9
REMARK                            x       y       z     vdW  Elec       q    Type
REMARK                         _______ _______ _______ _____ _____    ______ ____
ROOT
ATOM      1  N2  UNL     1      -1.181   0.153   1.146  0.00  0.00    +0.000 N 
ATOM      2  H3  UNL     1      -1.260  -0.023   2.211  0.00  0.00    +0.000 HD
ENDROOT
BRANCH   1   9
ATOM      3  O1  UNL     1      -3.804   0.725  -2.731  0.00  0.00    +0.000 OA
ATOM      4  C1  UNL     1      -3.757   0.554  -1.466  0.00  0.00    +0.000 A 
ATOM      5  N1  UNL     1      -4.920   0.472  -0.806  0.00  0.00    +0.000 N 
ATOM      6  C2  UNL     1      -4.848   0.293   0.520  0.00  0.00    +0.000 A 
ATOM      7  O2  UNL     1      -5.929   0.213   1.153  0.00  0.00    +0.000 OA
ATOM      8  C3  UNL     1      -3.636   0.199   1.169  0.00  0.00    +0.000 A 
ATOM      9  C4  UNL     1      -2.420   0.285   0.480  0.00  0.00    +0.000 A 
ATOM     10  N3  UNL     1      -2.541   0.463  -0.839  0.00  0.00    +0.000 N 
ATOM     11  H1  UNL     1      -5.815   0.548  -1.336  0.00  0.00    +0.000 HD
ATOM     12  H11 UNL     1      -1.699   0.518  -1.449  0.00  0.00    +0.000 HD
ENDBRANCH   1   9
BRANCH   1  13
ATOM     13  C5  UNL     1       0.100   0.226   0.571  0.00  0.00    +0.000 A 
ATOM     14  C6  UNL     1       0.474   1.177  -0.335  0.00  0.00    +0.000 A 
ATOM     15  C7  UNL     1       1.736   1.203  -0.913  0.00  0.00    +0.000 A 
ATOM     16  C8  UNL     1       2.641   0.226  -0.548  0.00  0.00    +0.000 A 
ATOM     17  C9  UNL     1       3.898   0.276  -1.141  0.00  0.00    +0.000 A 
ATOM     18  C10 UNL     1       4.827  -0.683  -0.801  0.00  0.00    +0.000 A 
ATOM     19  C11 UNL     1       4.482  -1.647   0.104  0.00  0.00    +0.000 A 
ATOM     20  C12 UNL     1       3.231  -1.716   0.710  0.00  0.00    +0.000 A 
ATOM     21  C13 UNL     1       2.299  -0.748   0.364  0.00  0.00    +0.000 A 
ATOM     22  C14 UNL     1       1.027  -0.748   0.925  0.00  0.00    +0.000 A 
ENDBRANCH   1  13
TORSDOF 2
