REMARK  Name = ./3D_structures\o68_MMV1580844_3D.pdb
REMARK  10 active torsions:
REMARK  status: ('A' for Active; 'I' for Inactive)
REMARK    1  A    between atoms: C1_1  and  C2_2
REMARK    2  A    between atoms: C2_2  and  C3_3
REMARK    3  A    between atoms: C5_8  and  N4_9
REMARK    4  A    between atoms: C6_10  and  C7_11
REMARK    5  A    between atoms: C8_12  and  C9_13
REMARK    6  A    between atoms: C9_13  and  C10_14
REMARK    7  A    between atoms: C9_13  and  C11_15
REMARK    8  A    between atoms: C13_17  and  O1_18
REMARK    9  A    between atoms: O1_18  and  C14_19
REMARK   10  A    between atoms: C16_21  and  C18_23
REMARK                            x       y       z     vdW  Elec       q    Type
REMARK                         _______ _______ _______ _____ _____    ______ ____
ROOT
ATOM      1  C7  UNL     1      -1.684  -0.731   1.189  0.00  0.00    +0.000 C 
ATOM      2  C8  UNL     1      -0.459  -0.767   1.494  0.00  0.00    +0.000 C 
ENDROOT
BRANCH   1   9
ATOM      3  C3  UNL     1      -3.947   0.018   1.560  0.00  0.00    +0.000 C 
ATOM      4  N1  UNL     1      -5.254   0.058   1.228  0.00  0.00    +0.000 NA
ATOM      5  C4  UNL     1      -5.690  -0.641   0.115  0.00  0.00    +0.000 C 
ATOM      6  N2  UNL     1      -7.070  -0.594  -0.225  0.00  0.00    +0.000 N 
ATOM      7  N3  UNL     1      -4.784  -1.302  -0.546  0.00  0.00    +0.000 NA
ATOM      8  C5  UNL     1      -3.472  -1.413  -0.311  0.00  0.00    +0.000 C 
ATOM      9  C6  UNL     1      -3.044  -0.696   0.826  0.00  0.00    +0.000 C 
ATOM     10  H6  UNL     1      -7.321  -1.020  -1.164  0.00  0.00    +0.000 HD
ATOM     11  H7  UNL     1      -7.788  -0.174   0.385  0.00  0.00    +0.000 HD
BRANCH   8  12
ATOM     12  N4  UNL     1      -2.612  -2.167  -1.127  0.00  0.00    +0.000 N 
ATOM     13  H8  UNL     1      -1.689  -2.453  -0.750  0.00  0.00    +0.000 HD
ATOM     14  H9  UNL     1      -2.873  -2.438  -2.089  0.00  0.00    +0.000 HD
ENDBRANCH   8  12
BRANCH   3  16
ATOM     15  C1  UNL     1      -2.822   2.084   2.412  0.00  0.00    +0.000 C 
ATOM     16  C2  UNL     1      -3.504   0.806   2.782  0.00  0.00    +0.000 C 
ENDBRANCH   3  16
ENDBRANCH   1   9
BRANCH   2  17
ATOM     17  C9  UNL     1       0.964  -0.800   1.874  0.00  0.00    +0.000 C 
ATOM     18  C10 UNL     1       1.086   0.110   3.117  0.00  0.00    +0.000 C 
BRANCH  17  19
ATOM     19  C11 UNL     1       1.724  -0.224   0.755  0.00  0.00    +0.000 A 
ATOM     20  C12 UNL     1       2.076   1.104   0.728  0.00  0.00    +0.000 A 
ATOM     21  C13 UNL     1       2.750   1.732  -0.276  0.00  0.00    +0.000 A 
ATOM     22  C15 UNL     1       3.128   0.955  -1.399  0.00  0.00    +0.000 A 
ATOM     23  C16 UNL     1       2.791  -0.367  -1.397  0.00  0.00    +0.000 A 
ATOM     24  C17 UNL     1       2.108  -0.962  -0.362  0.00  0.00    +0.000 A 
BRANCH  23  25
ATOM     25  C18 UNL     1       3.224  -1.147  -2.575  0.00  0.00    +0.000 A 
ATOM     26  C19 UNL     1       3.518  -2.478  -2.499  0.00  0.00    +0.000 A 
ATOM     27  C20 UNL     1       3.958  -3.228  -3.575  0.00  0.00    +0.000 A 
ATOM     28  N5  UNL     1       4.095  -2.582  -4.754  0.00  0.00    +0.000 NA
ATOM     29  C21 UNL     1       3.826  -1.272  -4.906  0.00  0.00    +0.000 A 
ATOM     30  C22 UNL     1       3.382  -0.537  -3.797  0.00  0.00    +0.000 A 
ENDBRANCH  23  25
BRANCH  21  31
ATOM     31  O1  UNL     1       3.117   3.044  -0.334  0.00  0.00    +0.000 OA
ATOM     32  C14 UNL     1       2.855   3.966   0.674  0.00  0.00    +0.000 C 
ENDBRANCH  21  31
ENDBRANCH  17  19
ENDBRANCH   2  17
TORSDOF 7
