REMARK  Name = ./3D_structures\o69_MMV1579788_3D.pdb
REMARK  8 active torsions:
REMARK  status: ('A' for Active; 'I' for Inactive)
REMARK    1  A    between atoms: C1_1  and  N1_2
REMARK    2  A    between atoms: N1_2  and  C2_3
REMARK    3  A    between atoms: C2_3  and  C3_4
REMARK    4  A    between atoms: C10_12  and  C11_13
REMARK    5  A    between atoms: C12_14  and  C13_16
REMARK    6  A    between atoms: C14_17  and  C15_18
REMARK    7  A    between atoms: C19_25  and  C20_26
REMARK    8  A    between atoms: C19_25  and  C21_27
REMARK                            x       y       z     vdW  Elec       q    Type
REMARK                         _______ _______ _______ _____ _____    ______ ____
ROOT
ATOM      1  C1  UNL     1      -3.033   4.191  -0.993  0.00  0.00    +0.000 C 
ATOM      2  N1  UNL     1      -1.879   3.234  -0.890  0.00  0.00    +0.000 N 
ATOM      3  C12 UNL     1      -1.264   2.869  -2.081  0.00  0.00    +0.000 C 
ATOM      4  O2  UNL     1      -1.759   3.494  -3.132  0.00  0.00    +0.000 OA
ENDROOT
BRANCH   3   5
ATOM      5  C13 UNL     1      -0.194   1.935  -2.352  0.00  0.00    +0.000 C 
ATOM      6  C14 UNL     1       0.462   1.167  -1.537  0.00  0.00    +0.000 C 
BRANCH   6   7
ATOM      7  C15 UNL     1       1.526   0.267  -1.926  0.00  0.00    +0.000 A 
ATOM      8  C16 UNL     1       1.936   0.150  -3.215  0.00  0.00    +0.000 A 
ATOM      9  N2  UNL     1       2.947  -0.723  -3.501  0.00  0.00    +0.000 NA
ATOM     10  C17 UNL     1       3.551  -1.469  -2.560  0.00  0.00    +0.000 A 
ATOM     11  N3  UNL     1       4.614  -2.427  -2.662  0.00  0.00    +0.000 N 
ATOM     12  C18 UNL     1       4.904  -2.950  -1.400  0.00  0.00    +0.000 C 
ATOM     13  O3  UNL     1       5.768  -3.818  -1.053  0.00  0.00    +0.000 OA
ATOM     14  C19 UNL     1       4.003  -2.316  -0.426  0.00  0.00    +0.000 C 
ATOM     15  C20 UNL     1       4.870  -1.554   0.564  0.00  0.00    +0.000 C 
ATOM     16  C21 UNL     1       3.161  -3.351   0.287  0.00  0.00    +0.000 C 
ATOM     17  C22 UNL     1       3.171  -1.388  -1.233  0.00  0.00    +0.000 A 
ATOM     18  C23 UNL     1       2.152  -0.509  -0.942  0.00  0.00    +0.000 A 
ATOM     19  H16 UNL     1       5.102  -2.698  -3.542  0.00  0.00    +0.000 HD
ENDBRANCH   6   7
ENDBRANCH   3   5
BRANCH   2  20
ATOM     20  C2  UNL     1      -1.560   2.865   0.468  0.00  0.00    +0.000 C 
BRANCH  20  21
ATOM     21  C3  UNL     1      -2.275   1.619   0.853  0.00  0.00    +0.000 A 
ATOM     22  O1  UNL     1      -3.082   0.932   0.095  0.00  0.00    +0.000 OA
ATOM     23  C4  UNL     1      -3.562  -0.123   0.715  0.00  0.00    +0.000 A 
ATOM     24  C5  UNL     1      -4.425  -1.122   0.344  0.00  0.00    +0.000 A 
ATOM     25  C6  UNL     1      -4.761  -2.130   1.222  0.00  0.00    +0.000 A 
ATOM     26  C7  UNL     1      -4.211  -2.110   2.479  0.00  0.00    +0.000 A 
ATOM     27  C8  UNL     1      -3.333  -1.119   2.901  0.00  0.00    +0.000 A 
ATOM     28  C9  UNL     1      -3.033  -0.140   1.985  0.00  0.00    +0.000 A 
ATOM     29  C10 UNL     1      -2.221   0.965   2.062  0.00  0.00    +0.000 A 
ATOM     30  C11 UNL     1      -1.425   1.385   3.236  0.00  0.00    +0.000 C 
ENDBRANCH  20  21
ENDBRANCH   2  20
TORSDOF 4
