REMARK  Name = ./3D_structures\o6_MMV000725_3D.pdb
REMARK  13 active torsions:
REMARK  status: ('A' for Active; 'I' for Inactive)
REMARK    1  A    between atoms: C2_3  and  O1_4
REMARK    2  A    between atoms: O1_4  and  C3_5
REMARK    3  A    between atoms: C3_5  and  C4_6
REMARK    4  A    between atoms: C4_6  and  O2_7
REMARK    5  A    between atoms: C4_6  and  C5_8
REMARK    6  A    between atoms: C5_8  and  N1_9
REMARK    7  A    between atoms: N3_12  and  C7_13
REMARK    8  A    between atoms: C7_13  and  C8_14
REMARK    9  A    between atoms: C8_14  and  N4_15
REMARK   10  A    between atoms: N4_15  and  C9_16
REMARK   11  A    between atoms: N4_15  and  C11_18
REMARK   12  A    between atoms: C9_16  and  C10_17
REMARK   13  A    between atoms: C11_18  and  C12_19
REMARK                            x       y       z     vdW  Elec       q    Type
REMARK                         _______ _______ _______ _____ _____    ______ ____
ROOT
ATOM      1  N1  UNL     1       1.052  -1.213  -2.138  0.00  0.00    +0.000 N 
ATOM      2  C6  UNL     1       0.383  -1.176  -0.963  0.00  0.00    +0.000 A 
ATOM      3  N2  UNL     1       0.874  -1.505   0.170  0.00  0.00    +0.000 NA
ATOM      4  N3  UNL     1      -0.871  -0.755  -1.155  0.00  0.00    +0.000 N 
ATOM      5  C13 UNL     1      -0.988  -0.524  -2.474  0.00  0.00    +0.000 A 
ATOM      6  C14 UNL     1       0.205  -0.806  -3.100  0.00  0.00    +0.000 A 
ATOM      7  C15 UNL     1       0.368  -0.659  -4.452  0.00  0.00    +0.000 A 
ATOM      8  C16 UNL     1      -0.729  -0.207  -5.186  0.00  0.00    +0.000 A 
ATOM      9  C17 UNL     1      -1.938   0.083  -4.580  0.00  0.00    +0.000 A 
ATOM     10  C18 UNL     1      -2.072  -0.075  -3.219  0.00  0.00    +0.000 A 
ATOM     11  H7  UNL     1       0.289  -1.447   1.023  0.00  0.00    +0.000 HD
ENDROOT
BRANCH   1  12
ATOM     12  C5  UNL     1       2.453  -1.610  -2.361  0.00  0.00    +0.000 C 
BRANCH  12  13
ATOM     13  C4  UNL     1       3.401  -0.468  -2.304  0.00  0.00    +0.000 C 
BRANCH  13  14
ATOM     14  O2  UNL     1       4.684  -0.924  -2.591  0.00  0.00    +0.000 OA
ATOM     15  H4  UNL     1       4.683  -1.908  -2.524  0.00  0.00    +0.000 HD
ENDBRANCH  13  14
BRANCH  13  16
ATOM     16  C3  UNL     1       3.413   0.242  -0.981  0.00  0.00    +0.000 C 
BRANCH  16  17
ATOM     17  O1  UNL     1       3.853  -0.591   0.073  0.00  0.00    +0.000 OA
BRANCH  17  20
ATOM     18 CL1  UNL     1       4.800  -2.476   2.122  0.00  0.00    +0.000 Cl
ATOM     19  C1  UNL     1       4.330  -0.816   2.438  0.00  0.00    +0.000 A 
ATOM     20  C2  UNL     1       3.903  -0.053   1.345  0.00  0.00    +0.000 A 
ATOM     21  C19 UNL     1       3.540   1.245   1.617  0.00  0.00    +0.000 A 
ATOM     22  C20 UNL     1       3.593   1.775   2.898  0.00  0.00    +0.000 A 
ATOM     23  C21 UNL     1       4.025   0.976   3.952  0.00  0.00    +0.000 A 
ATOM     24  C22 UNL     1       4.394  -0.331   3.706  0.00  0.00    +0.000 A 
ATOM     25 CL2  UNL     1       4.066   1.709   5.541  0.00  0.00    +0.000 Cl
ENDBRANCH  17  20
ENDBRANCH  16  17
ENDBRANCH  13  16
ENDBRANCH  12  13
ENDBRANCH   1  12
BRANCH   4  26
ATOM     26  C7  UNL     1      -1.943  -0.568  -0.154  0.00  0.00    +0.000 C 
BRANCH  26  27
ATOM     27  C8  UNL     1      -1.932   0.790   0.408  0.00  0.00    +0.000 C 
BRANCH  27  28
ATOM     28  N4  UNL     1      -3.019   0.971   1.380  0.00  0.00    +0.000 NA
BRANCH  28  29
ATOM     29  C9  UNL     1      -2.767   0.193   2.510  0.00  0.00    +0.000 C 
ATOM     30  C10 UNL     1      -3.622   0.351   3.719  0.00  0.00    +0.000 C 
ENDBRANCH  28  29
BRANCH  28  31
ATOM     31  C11 UNL     1      -4.279   0.969   0.749  0.00  0.00    +0.000 C 
ATOM     32  C12 UNL     1      -5.489   1.188   1.610  0.00  0.00    +0.000 C 
ENDBRANCH  28  31
ENDBRANCH  27  28
ENDBRANCH  26  27
ENDBRANCH   4  26
TORSDOF 11
