REMARK  Name = ./3D_structures\o71_MMV811071_3D.pdb
REMARK  6 active torsions:
REMARK  status: ('A' for Active; 'I' for Inactive)
REMARK    1  A    between atoms: C1_1  and  N1_2
REMARK    2  A    between atoms: N1_2  and  C2_3
REMARK    3  A    between atoms: N1_2  and  C3_4
REMARK    4  A    between atoms: C3_4  and  C4_5
REMARK    5  A    between atoms: C4_5  and  N2_6
REMARK    6  A    between atoms: C5_7  and  C6_9
REMARK                            x       y       z     vdW  Elec       q    Type
REMARK                         _______ _______ _______ _____ _____    ______ ____
ROOT
ATOM      1  C6  UNL     1       1.643   0.367   0.589  0.00  0.00    +0.000 A 
ATOM      2  C7  UNL     1       1.862   1.610   1.191  0.00  0.00    +0.000 A 
ATOM      3  C8  UNL     1       3.091   2.216   1.166  0.00  0.00    +0.000 A 
ATOM      4  C9  UNL     1       4.157   1.583   0.525  0.00  0.00    +0.000 A 
ATOM      5  C10 UNL     1       3.957   0.362  -0.069  0.00  0.00    +0.000 A 
ATOM      6  C11 UNL     1       4.993  -0.327  -0.683  0.00  0.00    +0.000 A 
ATOM      7  C12 UNL     1       4.784  -1.581  -1.240  0.00  0.00    +0.000 A 
ATOM      8  C13 UNL     1       3.517  -2.108  -1.163  0.00  0.00    +0.000 A 
ATOM      9  N3  UNL     1       2.494  -1.456  -0.574  0.00  0.00    +0.000 NA
ATOM     10  C14 UNL     1       2.715  -0.226  -0.031  0.00  0.00    +0.000 A 
ENDROOT
BRANCH   1  12
ATOM     11  N2  UNL     1      -0.499  -0.181  -0.599  0.00  0.00    +0.000 N 
ATOM     12  C5  UNL     1       0.287  -0.200   0.588  0.00  0.00    +0.000 C 
ATOM     13  O1  UNL     1      -0.159  -0.688   1.655  0.00  0.00    +0.000 OA
ATOM     14  H11 UNL     1      -0.030   0.250  -1.458  0.00  0.00    +0.000 HD
BRANCH  11  15
ATOM     15  C4  UNL     1      -1.854  -0.715  -0.659  0.00  0.00    +0.000 C 
BRANCH  15  16
ATOM     16  C3  UNL     1      -2.699  -0.011   0.340  0.00  0.00    +0.000 C 
BRANCH  16  18
ATOM     17  C1  UNL     1      -4.683   0.149   1.578  0.00  0.00    +0.000 C 
ATOM     18  N1  UNL     1      -4.075  -0.471   0.401  0.00  0.00    +0.000 NA
ATOM     19  C2  UNL     1      -4.857  -0.114  -0.767  0.00  0.00    +0.000 C 
ENDBRANCH  16  18
ENDBRANCH  15  16
ENDBRANCH  11  15
ENDBRANCH   1  12
TORSDOF 4
