REMARK  Name = ./3D_structures\o72_MMV1578898_3D.pdb
REMARK  4 active torsions:
REMARK  status: ('A' for Active; 'I' for Inactive)
REMARK    1  A    between atoms: C1_1  and  C2_2
REMARK    2  A    between atoms: C2_2  and  O1_3
REMARK    3  A    between atoms: O1_3  and  C3_4
REMARK    4  A    between atoms: N2_9  and  C8_12
REMARK                            x       y       z     vdW  Elec       q    Type
REMARK                         _______ _______ _______ _____ _____    ______ ____
ROOT
ATOM      1  C3  UNL     1      -2.784   0.838   0.364  0.00  0.00    +0.000 C 
ATOM      2  O2  UNL     1      -3.217   1.985   0.099  0.00  0.00    +0.000 OA
ATOM      3  N1  UNL     1      -1.384   0.623   0.397  0.00  0.00    +0.000 N 
ATOM      4  C4  UNL     1      -0.477   1.704   0.130  0.00  0.00    +0.000 C 
ATOM      5  C5  UNL     1       0.960   1.357   0.408  0.00  0.00    +0.000 C 
ATOM      6  N2  UNL     1       1.312   0.000   0.129  0.00  0.00    +0.000 N 
ATOM      7  C6  UNL     1       0.357  -1.074   0.063  0.00  0.00    +0.000 C 
ATOM      8  C7  UNL     1      -0.940  -0.729   0.711  0.00  0.00    +0.000 C 
ENDROOT
BRANCH   6   9
ATOM      9  C8  UNL     1       2.698  -0.326  -0.099  0.00  0.00    +0.000 A 
ATOM     10  C9  UNL     1       3.698   0.617   0.018  0.00  0.00    +0.000 A 
ATOM     11  C10 UNL     1       5.042   0.305  -0.205  0.00  0.00    +0.000 A 
ATOM     12  C11 UNL     1       5.401  -0.971  -0.551  0.00  0.00    +0.000 A 
ATOM     13 CL1  UNL     1       7.091  -1.348  -0.828  0.00  0.00    +0.000 Cl
ATOM     14  C12 UNL     1       4.421  -1.924  -0.673  0.00  0.00    +0.000 A 
ATOM     15  C13 UNL     1       3.094  -1.602  -0.449  0.00  0.00    +0.000 A 
ENDBRANCH   6   9
BRANCH   1  16
ATOM     16  O1  UNL     1      -3.715  -0.149   0.610  0.00  0.00    +0.000 OA
BRANCH  16  18
ATOM     17  C1  UNL     1      -5.405   0.643  -0.835  0.00  0.00    +0.000 C 
ATOM     18  C2  UNL     1      -5.090   0.148   0.557  0.00  0.00    +0.000 C 
ENDBRANCH  16  18
ENDBRANCH   1  16
TORSDOF 3
