REMARK  Name = ./3D_structures\o73_MMV1549626_3D.pdb
REMARK  7 active torsions:
REMARK  status: ('A' for Active; 'I' for Inactive)
REMARK    1  A    between atoms: C1_1  and  C2_2
REMARK    2  A    between atoms: C2_2  and  C3_3
REMARK    3  A    between atoms: C9_11  and  S1_12
REMARK    4  A    between atoms: S1_12  and  C10_13
REMARK    5  A    between atoms: C10_13  and  C11_14
REMARK    6  A    between atoms: C11_14  and  C12_15
REMARK    7  A    between atoms: C18_21  and  C19_22
REMARK                            x       y       z     vdW  Elec       q    Type
REMARK                         _______ _______ _______ _____ _____    ______ ____
ROOT
ATOM      1  C1  UNL     1      -3.616  -3.429   0.800  0.00  0.00    +0.000 C 
ATOM      2  C2  UNL     1      -3.482  -2.036   1.432  0.00  0.00    +0.000 C 
ATOM      3  C3  UNL     1      -4.458  -1.990   2.572  0.00  0.00    +0.000 C 
ATOM      4  C4  UNL     1      -2.088  -1.961   1.991  0.00  0.00    +0.000 C 
ATOM      5  C5  UNL     1      -1.349  -0.768   1.462  0.00  0.00    +0.000 A 
ATOM      6  C6  UNL     1      -2.003   0.319   0.892  0.00  0.00    +0.000 A 
ATOM      7  C7  UNL     1      -3.466   0.199   0.783  0.00  0.00    +0.000 C 
ATOM      8  O1  UNL     1      -3.727  -1.136   0.436  0.00  0.00    +0.000 OA
ATOM      9  C8  UNL     1      -1.344   1.421   0.414  0.00  0.00    +0.000 A 
ATOM     10  N1  UNL     1       0.023   1.398   0.525  0.00  0.00    +0.000 NA
ATOM     11  C9  UNL     1       0.679   0.370   1.066  0.00  0.00    +0.000 A 
ATOM     12  C18 UNL     1       0.025  -0.739   1.550  0.00  0.00    +0.000 A 
ATOM     13  N3  UNL     1      -1.965   2.588  -0.132  0.00  0.00    +0.000 N 
ATOM     14  C20 UNL     1      -1.168   3.280  -1.159  0.00  0.00    +0.000 C 
ATOM     15  C21 UNL     1      -1.157   4.744  -0.796  0.00  0.00    +0.000 C 
ATOM     16  O2  UNL     1      -2.477   5.185  -0.681  0.00  0.00    +0.000 OA
ATOM     17  C22 UNL     1      -3.055   4.665   0.455  0.00  0.00    +0.000 C 
ATOM     18  C23 UNL     1      -3.217   3.146   0.238  0.00  0.00    +0.000 C 
ENDROOT
BRANCH  12  19
ATOM     19  C19 UNL     1       0.748  -1.838   2.132  0.00  0.00    +0.000 C 
ATOM     20  N2  UNL     1       1.333  -2.705   2.611  0.00  0.00    +0.000 NA
ENDBRANCH  12  19
BRANCH  11  21
ATOM     21  S1  UNL     1       2.476   0.356   1.201  0.00  0.00    +0.000 S 
BRANCH  21  22
ATOM     22  C10 UNL     1       3.156  -0.379  -0.296  0.00  0.00    +0.000 C 
BRANCH  22  23
ATOM     23  C11 UNL     1       4.674  -0.425  -0.257  0.00  0.00    +0.000 C 
BRANCH  23  24
ATOM     24  C12 UNL     1       5.202  -1.036  -1.505  0.00  0.00    +0.000 A 
ATOM     25  C13 UNL     1       5.394  -2.413  -1.547  0.00  0.00    +0.000 A 
ATOM     26  C14 UNL     1       5.880  -3.042  -2.672  0.00  0.00    +0.000 A 
ATOM     27  C15 UNL     1       6.188  -2.310  -3.789  0.00  0.00    +0.000 A 
ATOM     28  C16 UNL     1       5.997  -0.950  -3.742  0.00  0.00    +0.000 A 
ATOM     29  C17 UNL     1       5.514  -0.323  -2.623  0.00  0.00    +0.000 A 
ENDBRANCH  23  24
ENDBRANCH  22  23
ENDBRANCH  21  22
ENDBRANCH  11  21
TORSDOF 5
