REMARK  Name = ./3D_structures\o74_MMV1578559_3D.pdb
REMARK  10 active torsions:
REMARK  status: ('A' for Active; 'I' for Inactive)
REMARK    1  A    between atoms: C1_1  and  O1_2
REMARK    2  A    between atoms: O1_2  and  C2_3
REMARK    3  A    between atoms: C2_3  and  N1_4
REMARK    4  A    between atoms: C3_5  and  C4_7
REMARK    5  A    between atoms: C4_7  and  C5_8
REMARK    6  A    between atoms: C11_16  and  C15_24
REMARK    7  A    between atoms: C12_17  and  C14_21
REMARK    8  A    between atoms: C14_21  and  O5_23
REMARK    9  A    between atoms: C15_24  and  O6_25
REMARK   10  A    between atoms: O6_25  and  C16_26
REMARK                            x       y       z     vdW  Elec       q    Type
REMARK                         _______ _______ _______ _____ _____    ______ ____
ROOT
ATOM      1  C2  UNL     1      -0.736   1.788   1.013  0.00  0.00    +0.000 C 
ATOM      2  C9  UNL     1       0.735   1.758   1.405  0.00  0.00    +0.000 C 
ATOM      3  S2  UNL     1       1.261   0.322   2.358  0.00  0.00    +0.000 S 
ATOM      4  C10 UNL     1       2.152  -0.762   1.256  0.00  0.00    +0.000 C 
ATOM      5  C11 UNL     1       2.953   0.002   0.213  0.00  0.00    +0.000 C 
ATOM      6  C12 UNL     1       2.470   1.099  -0.346  0.00  0.00    +0.000 C 
ATOM      7  N2  UNL     1       1.169   1.585   0.044  0.00  0.00    +0.000 N 
ATOM      8  C13 UNL     1      -0.078   2.043  -0.395  0.00  0.00    +0.000 C 
ATOM      9  O3  UNL     1      -0.659   2.498  -1.401  0.00  0.00    +0.000 OA
ENDROOT
BRANCH   1  10
ATOM     10  N1  UNL     1      -1.328   0.498   0.836  0.00  0.00    +0.000 N 
ATOM     11  C3  UNL     1      -2.642   0.096   0.652  0.00  0.00    +0.000 C 
ATOM     12  O2  UNL     1      -3.559   0.930   0.636  0.00  0.00    +0.000 OA
ATOM     13  H4  UNL     1      -0.620  -0.316   0.848  0.00  0.00    +0.000 HD
BRANCH  11  14
ATOM     14  C4  UNL     1      -3.045  -1.338   0.463  0.00  0.00    +0.000 C 
BRANCH  14  15
ATOM     15  C5  UNL     1      -4.480  -1.498   0.290  0.00  0.00    +0.000 A 
ATOM     16  C6  UNL     1      -5.512  -1.693   1.111  0.00  0.00    +0.000 A 
ATOM     17  C7  UNL     1      -6.764  -1.807   0.659  0.00  0.00    +0.000 A 
ATOM     18  C8  UNL     1      -6.959  -1.715  -0.709  0.00  0.00    +0.000 A 
ATOM     19  S1  UNL     1      -5.305  -1.459  -1.360  0.00  0.00    +0.000 S 
ENDBRANCH  14  15
ENDBRANCH  11  14
ENDBRANCH   1  10
BRANCH   1  21
ATOM     20  C1  UNL     1      -2.142   3.607   0.497  0.00  0.00    +0.000 C 
ATOM     21  O1  UNL     1      -1.400   2.894   1.362  0.00  0.00    +0.000 OA
ENDBRANCH   1  21
BRANCH   6  22
ATOM     22  C14 UNL     1       3.155   1.824  -1.396  0.00  0.00    +0.000 C 
ATOM     23  O4  UNL     1       2.623   2.888  -1.887  0.00  0.00    +0.000 OA
BRANCH  22  24
ATOM     24  O5  UNL     1       4.365   1.516  -1.981  0.00  0.00    +0.000 OA
ATOM     25  H13 UNL     1       4.846   2.087  -2.643  0.00  0.00    +0.000 HD
ENDBRANCH  22  24
ENDBRANCH   6  22
BRANCH   5  26
ATOM     26  C15 UNL     1       4.300  -0.514  -0.097  0.00  0.00    +0.000 C 
BRANCH  26  27
ATOM     27  O6  UNL     1       4.228  -1.835  -0.653  0.00  0.00    +0.000 OA
BRANCH  27  28
ATOM     28  C16 UNL     1       5.441  -2.427  -0.987  0.00  0.00    +0.000 C 
ATOM     29  O7  UNL     1       6.532  -1.806  -0.796  0.00  0.00    +0.000 OA
ATOM     30  N3  UNL     1       5.542  -3.722  -1.544  0.00  0.00    +0.000 N 
ATOM     31  H16 UNL     1       5.252  -3.930  -2.535  0.00  0.00    +0.000 HD
ATOM     32  H17 UNL     1       5.914  -4.512  -0.973  0.00  0.00    +0.000 HD
ENDBRANCH  27  28
ENDBRANCH  26  27
ENDBRANCH   5  26
TORSDOF 9
