REMARK  Name = ./3D_structures\o75_MMV1578579_3D.pdb
REMARK  7 active torsions:
REMARK  status: ('A' for Active; 'I' for Inactive)
REMARK    1  A    between atoms: C1_1  and  O1_2
REMARK    2  A    between atoms: O1_2  and  C2_3
REMARK    3  A    between atoms: C5_6  and  C6_7
REMARK    4  A    between atoms: C8_9  and  N1_10
REMARK    5  A    between atoms: C9_11  and  C10_13
REMARK    6  A    between atoms: C13_16  and  S1_19
REMARK    7  A    between atoms: S1_19  and  N2_22
REMARK                            x       y       z     vdW  Elec       q    Type
REMARK                         _______ _______ _______ _____ _____    ______ ____
ROOT
ATOM      1  C10 UNL     1      -0.554   0.451   0.828  0.00  0.00    +0.000 A 
ATOM      2  C11 UNL     1       0.210   0.650   1.976  0.00  0.00    +0.000 A 
ATOM      3  C12 UNL     1       1.516   1.063   1.889  0.00  0.00    +0.000 A 
ATOM      4  C13 UNL     1       2.127   1.297   0.680  0.00  0.00    +0.000 A 
ATOM      5  C14 UNL     1       1.376   1.102  -0.452  0.00  0.00    +0.000 A 
ATOM      6  C15 UNL     1       0.044   0.682  -0.382  0.00  0.00    +0.000 A 
ENDROOT
BRANCH   1   8
ATOM      7  N1  UNL     1      -2.836   0.184  -0.095  0.00  0.00    +0.000 N 
ATOM      8  C9  UNL     1      -1.953  -0.002   0.986  0.00  0.00    +0.000 C 
ATOM      9  O2  UNL     1      -2.300  -0.532   2.068  0.00  0.00    +0.000 OA
ATOM     10  H10 UNL     1      -2.442   0.656  -0.976  0.00  0.00    +0.000 HD
BRANCH   7  17
ATOM     11  C2  UNL     1      -4.939   0.058  -1.249  0.00  0.00    +0.000 A 
ATOM     12  C3  UNL     1      -6.273  -0.273  -1.357  0.00  0.00    +0.000 A 
ATOM     13  C4  UNL     1      -6.908  -0.879  -0.294  0.00  0.00    +0.000 A 
ATOM     14  C5  UNL     1      -6.182  -1.134   0.847  0.00  0.00    +0.000 A 
ATOM     15  C6  UNL     1      -6.829  -1.793   2.033  0.00  0.00    +0.000 C 
ATOM     16  C7  UNL     1      -4.827  -0.791   0.938  0.00  0.00    +0.000 A 
ATOM     17  C8  UNL     1      -4.180  -0.190  -0.103  0.00  0.00    +0.000 A 
BRANCH  11  19
ATOM     18  C1  UNL     1      -4.959   0.970  -3.530  0.00  0.00    +0.000 C 
ATOM     19  O1  UNL     1      -4.318   0.666  -2.326  0.00  0.00    +0.000 OA
ENDBRANCH  11  19
ENDBRANCH   7  17
ENDBRANCH   1   8
BRANCH   4  20
ATOM     20  S1  UNL     1       3.784   1.823   0.522  0.00  0.00    +0.000 S 
ATOM     21  O3  UNL     1       4.242   2.633   1.687  0.00  0.00    +0.000 OA
ATOM     22  O4  UNL     1       3.983   2.572  -0.768  0.00  0.00    +0.000 OA
BRANCH  20  23
ATOM     23  N2  UNL     1       4.766   0.390   0.419  0.00  0.00    +0.000 NA
ATOM     24  C16 UNL     1       4.422  -0.397  -0.737  0.00  0.00    +0.000 C 
ATOM     25  C17 UNL     1       5.606  -1.128  -1.324  0.00  0.00    +0.000 C 
ATOM     26  C18 UNL     1       6.529  -1.574  -0.185  0.00  0.00    +0.000 C 
ATOM     27  C19 UNL     1       7.099  -0.350   0.520  0.00  0.00    +0.000 C 
ATOM     28  C20 UNL     1       6.148   0.824   0.402  0.00  0.00    +0.000 C 
ENDBRANCH  20  23
ENDBRANCH   4  20
TORSDOF 5
