REMARK  Name = ./3D_structures\o76_MMV1578578_3D.pdb
REMARK  2 active torsions:
REMARK  status: ('A' for Active; 'I' for Inactive)
REMARK    1  A    between atoms: C4_5  and  C7_8
REMARK    2  A    between atoms: C9_13  and  C10_16
REMARK                            x       y       z     vdW  Elec       q    Type
REMARK                         _______ _______ _______ _____ _____    ______ ____
ROOT
ATOM      1  C7  UNL     1       1.886   0.217   0.035  0.00  0.00    +0.000 C 
ATOM      2  O1  UNL     1       1.141   0.248  -0.998  0.00  0.00    +0.000 OA
ATOM      3  N1  UNL     1       1.212  -0.002   1.260  0.00  0.00    +0.000 N 
ATOM      4  C8  UNL     1      -0.194  -0.177   1.350  0.00  0.00    +0.000 A 
ATOM      5  O2  UNL     1      -1.096  -0.176   0.417  0.00  0.00    +0.000 OA
ATOM      6  C9  UNL     1      -2.299  -0.377   0.940  0.00  0.00    +0.000 A 
ATOM      7  N2  UNL     1      -2.150  -0.512   2.269  0.00  0.00    +0.000 NA
ATOM      8  N3  UNL     1      -0.851  -0.386   2.500  0.00  0.00    +0.000 NA
ATOM      9  H5  UNL     1       1.803  -0.031   2.122  0.00  0.00    +0.000 HD
ENDROOT
BRANCH   1  14
ATOM     10  F1  UNL     1       7.436   0.925  -0.458  0.00  0.00    +0.000 F 
ATOM     11  C1  UNL     1       6.080   0.756  -0.371  0.00  0.00    +0.000 A 
ATOM     12  C2  UNL     1       5.554   0.551   0.885  0.00  0.00    +0.000 A 
ATOM     13  C3  UNL     1       4.183   0.377   0.998  0.00  0.00    +0.000 A 
ATOM     14  C4  UNL     1       3.326   0.399  -0.075  0.00  0.00    +0.000 A 
ATOM     15  C5  UNL     1       3.898   0.609  -1.329  0.00  0.00    +0.000 A 
ATOM     16  C6  UNL     1       5.265   0.788  -1.486  0.00  0.00    +0.000 A 
ENDBRANCH   1  14
BRANCH   6  17
ATOM     17  C10 UNL     1      -3.545  -0.437   0.181  0.00  0.00    +0.000 A 
ATOM     18  C11 UNL     1      -3.562  -0.284  -1.169  0.00  0.00    +0.000 A 
ATOM     19  C12 UNL     1      -4.739  -0.339  -1.895  0.00  0.00    +0.000 A 
ATOM     20  C13 UNL     1      -5.934  -0.553  -1.257  0.00  0.00    +0.000 A 
ATOM     21  C14 UNL     1      -5.931  -0.711   0.126  0.00  0.00    +0.000 A 
ATOM     22  C15 UNL     1      -4.732  -0.651   0.836  0.00  0.00    +0.000 A 
ENDBRANCH   6  17
TORSDOF 2
