REMARK  Name = ./3D_structures\o77_MMV1578574_3D.pdb
REMARK  11 active torsions:
REMARK  status: ('A' for Active; 'I' for Inactive)
REMARK    1  A    between atoms: C1_1  and  N1_2
REMARK    2  A    between atoms: N1_2  and  C2_3
REMARK    3  A    between atoms: N1_2  and  C3_4
REMARK    4  A    between atoms: C11_13  and  N2_14
REMARK    5  A    between atoms: C12_15  and  C13_17
REMARK    6  A    between atoms: C13_17  and  N3_18
REMARK    7  A    between atoms: C18_23  and  O2_24
REMARK    8  A    between atoms: C20_26  and  O8_40
REMARK    9  A    between atoms: C23_30  and  O4_31
REMARK   10  A    between atoms: C24_32  and  O7_39
REMARK   11  A    between atoms: C25_33  and  C26_34
REMARK                            x       y       z     vdW  Elec       q    Type
REMARK                         _______ _______ _______ _____ _____    ______ ____
ROOT
ATOM      1  C3  UNL     1      -5.061  -0.296  -0.800  0.00  0.00    +0.000 C 
ATOM      2  C4  UNL     1      -4.273   0.895  -0.424  0.00  0.00    +0.000 C 
ATOM      3  C5  UNL     1      -2.942   1.012  -1.115  0.00  0.00    +0.000 C 
ATOM      4  C6  UNL     1      -1.844   1.612  -0.216  0.00  0.00    +0.000 C 
ATOM      5  C7  UNL     1      -0.636   1.872  -1.001  0.00  0.00    +0.000 C 
ATOM      6  C8  UNL     1       0.587   1.147  -0.604  0.00  0.00    +0.000 A 
ATOM      7  C9  UNL     1       1.749   1.414  -1.366  0.00  0.00    +0.000 A 
ATOM      8  F1  UNL     1       1.689   2.306  -2.389  0.00  0.00    +0.000 F 
ATOM      9  C10 UNL     1       2.900   0.751  -1.031  0.00  0.00    +0.000 A 
ATOM     10  C11 UNL     1       3.009  -0.151  -0.015  0.00  0.00    +0.000 A 
ATOM     11  C18 UNL     1       1.808  -0.386   0.724  0.00  0.00    +0.000 A 
ATOM     12  C19 UNL     1       0.626   0.258   0.425  0.00  0.00    +0.000 A 
ATOM     13  C20 UNL     1      -0.596   0.006   1.187  0.00  0.00    +0.000 C 
ATOM     14  C21 UNL     1      -1.712   0.629   0.883  0.00  0.00    +0.000 C 
ATOM     15  C22 UNL     1      -2.956   0.370   1.620  0.00  0.00    +0.000 C 
ATOM     16  O3  UNL     1      -2.971  -0.358   2.626  0.00  0.00    +0.000 OA
ATOM     17  C23 UNL     1      -4.180   1.044   1.066  0.00  0.00    +0.000 C 
ATOM     18  C24 UNL     1      -5.376   0.596   1.790  0.00  0.00    +0.000 C 
ATOM     19  C25 UNL     1      -6.426  -0.014   1.284  0.00  0.00    +0.000 C 
ATOM     20  C27 UNL     1      -6.391  -0.266  -0.143  0.00  0.00    +0.000 C 
ATOM     21  O6  UNL     1      -7.485  -0.447  -0.748  0.00  0.00    +0.000 OA
ENDROOT
BRANCH  19  22
ATOM     22  C26 UNL     1      -7.568  -0.419   2.094  0.00  0.00    +0.000 C 
ATOM     23  O5  UNL     1      -8.526  -0.994   1.536  0.00  0.00    +0.000 OA
ATOM     24  N4  UNL     1      -7.602  -0.172   3.480  0.00  0.00    +0.000 N 
ATOM     25  H28 UNL     1      -7.558  -0.961   4.165  0.00  0.00    +0.000 HD
ATOM     26  H29 UNL     1      -7.671   0.804   3.887  0.00  0.00    +0.000 HD
ENDBRANCH  19  22
BRANCH  10  27
ATOM     27  N2  UNL     1       4.138  -0.875   0.377  0.00  0.00    +0.000 N 
ATOM     28  C12 UNL     1       5.403  -0.777  -0.236  0.00  0.00    +0.000 C 
ATOM     29  O1  UNL     1       5.584  -0.006  -1.193  0.00  0.00    +0.000 OA
ATOM     30  H15 UNL     1       4.074  -1.564   1.199  0.00  0.00    +0.000 HD
BRANCH  28  31
ATOM     31  C13 UNL     1       6.558  -1.609   0.260  0.00  0.00    +0.000 C 
BRANCH  31  32
ATOM     32  N3  UNL     1       7.717  -1.299  -0.554  0.00  0.00    +0.000 NA
ATOM     33  C14 UNL     1       8.835  -2.124  -0.136  0.00  0.00    +0.000 C 
ATOM     34  C15 UNL     1      10.075  -1.317  -0.320  0.00  0.00    +0.000 C 
ATOM     35  C16 UNL     1       9.642   0.110  -0.405  0.00  0.00    +0.000 C 
ATOM     36  C17 UNL     1       8.140   0.074  -0.388  0.00  0.00    +0.000 C 
ENDBRANCH  31  32
ENDBRANCH  28  31
ENDBRANCH  10  27
BRANCH   1  38
ATOM     37  C1  UNL     1      -4.203  -0.882  -3.019  0.00  0.00    +0.000 C 
ATOM     38  N1  UNL     1      -5.288  -0.561  -2.175  0.00  0.00    +0.000 NA
ATOM     39  C2  UNL     1      -6.261   0.307  -2.795  0.00  0.00    +0.000 C 
ENDBRANCH   1  38
BRANCH  11  40
ATOM     40  O2  UNL     1       1.871  -1.278   1.748  0.00  0.00    +0.000 OA
ATOM     41  H26 UNL     1       1.334  -1.672   2.419  0.00  0.00    +0.000 HD
ENDBRANCH  11  40
BRANCH  17  42
ATOM     42  O4  UNL     1      -4.100   2.440   1.374  0.00  0.00    +0.000 OA
ATOM     43  H27 UNL     1      -3.622   2.573   2.217  0.00  0.00    +0.000 HD
ENDBRANCH  17  42
BRANCH  18  44
ATOM     44  O7  UNL     1      -5.391   0.852   3.181  0.00  0.00    +0.000 OA
ATOM     45  H30 UNL     1      -5.223   0.141   3.864  0.00  0.00    +0.000 HD
ENDBRANCH  18  44
BRANCH  13  46
ATOM     46  O8  UNL     1      -0.609  -0.882   2.234  0.00  0.00    +0.000 OA
ATOM     47  H31 UNL     1      -0.721  -0.685   3.200  0.00  0.00    +0.000 HD
ENDBRANCH  13  46
TORSDOF 9
