REMARK  Name = ./3D_structures\o78_MMV1578569_3D.pdb
REMARK  2 active torsions:
REMARK  status: ('A' for Active; 'I' for Inactive)
REMARK    1  A    between atoms: O1_1  and  C1_2
REMARK    2  A    between atoms: C6_9  and  C7_10
REMARK                            x       y       z     vdW  Elec       q    Type
REMARK                         _______ _______ _______ _____ _____    ______ ____
ROOT
ATOM      1  C1  UNL     1      -1.683  -1.274  -0.442  0.00  0.00    +0.000 A 
ATOM      2  C2  UNL     1      -2.951  -0.917  -0.866  0.00  0.00    +0.000 A 
ATOM      3 BR1  UNL     1      -4.109  -2.122  -1.787  0.00  0.00    +0.000 Br
ATOM      4  C3  UNL     1      -3.410   0.348  -0.623  0.00  0.00    +0.000 A 
ATOM      5  C4  UNL     1      -2.610   1.245   0.035  0.00  0.00    +0.000 A 
ATOM      6 BR2  UNL     1      -3.164   3.021   0.415  0.00  0.00    +0.000 Br
ATOM      7  C5  UNL     1      -1.339   0.859   0.451  0.00  0.00    +0.000 A 
ATOM      8  C6  UNL     1      -0.844  -0.403   0.223  0.00  0.00    +0.000 A 
ENDROOT
BRANCH   8   9
ATOM      9  C7  UNL     1       0.467  -0.872   0.646  0.00  0.00    +0.000 C 
ATOM     10  C8  UNL     1       1.588  -0.203   0.440  0.00  0.00    +0.000 C 
ATOM     11  N1  UNL     1       1.701   1.048  -0.214  0.00  0.00    +0.000 N 
ATOM     12  C9  UNL     1       3.086   1.422  -0.210  0.00  0.00    +0.000 C 
ATOM     13  S1  UNL     1       3.684   2.800  -0.860  0.00  0.00    +0.000 S 
ATOM     14  N2  UNL     1       3.818   0.411   0.440  0.00  0.00    +0.000 N 
ATOM     15  C10 UNL     1       2.934  -0.597   0.850  0.00  0.00    +0.000 C 
ATOM     16  O2  UNL     1       3.206  -1.656   1.457  0.00  0.00    +0.000 OA
ATOM     17  H5  UNL     1       0.936   1.601  -0.633  0.00  0.00    +0.000 HD
ATOM     18  H6  UNL     1       4.856   0.368   0.617  0.00  0.00    +0.000 HD
ENDBRANCH   8   9
BRANCH   1  19
ATOM     19  O1  UNL     1      -1.273  -2.556  -0.712  0.00  0.00    +0.000 OA
ATOM     20  H1  UNL     1      -0.363  -2.910  -0.441  0.00  0.00    +0.000 HD
ENDBRANCH   1  19
TORSDOF 2
