REMARK  Name = ./3D_structures\o79_MMV1578566_3D.pdb
REMARK  8 active torsions:
REMARK  status: ('A' for Active; 'I' for Inactive)
REMARK    1  A    between atoms: N1_1  and  C1_2
REMARK    2  A    between atoms: C1_2  and  C2_3
REMARK    3  A    between atoms: B1_5  and  O2_6
REMARK    4  A    between atoms: C4_8  and  O3_9
REMARK    5  A    between atoms: O3_9  and  C5_10
REMARK    6  A    between atoms: C5_10  and  C6_11
REMARK    7  A    between atoms: C6_11  and  C7_12
REMARK    8  A    between atoms: C7_12  and  O4_13
REMARK                            x       y       z     vdW  Elec       q    Type
REMARK                         _______ _______ _______ _____ _____    ______ ____
ROOT
ATOM      1  C2  UNL     1      -3.195   0.232   0.078  0.00  0.00    +0.000 C 
ATOM      2  O1  UNL     1      -2.856  -0.749   0.962  0.00  0.00    +0.000 OA
ATOM      3  B1  UNL     1      -1.479  -0.342   1.337  0.00  0.00    +0.000 B 
ATOM      4  C3  UNL     1      -0.896   0.187  -0.035  0.00  0.00    +0.000 A 
ATOM      5  C4  UNL     1       0.404   0.323  -0.495  0.00  0.00    +0.000 A 
ATOM      6  C8  UNL     1       0.555   0.828  -1.782  0.00  0.00    +0.000 A 
ATOM      7  C9  UNL     1      -0.559   1.163  -2.527  0.00  0.00    +0.000 A 
ATOM      8  C10 UNL     1      -1.840   1.016  -2.043  0.00  0.00    +0.000 A 
ATOM      9  C11 UNL     1      -2.019   0.514  -0.761  0.00  0.00    +0.000 A 
ENDROOT
BRANCH   3  10
ATOM     10  O2  UNL     1      -0.655  -0.897   2.405  0.00  0.00    +0.000 OA
ATOM     11  H6  UNL     1       0.261  -0.549   2.314  0.00  0.00    +0.000 HD
ENDBRANCH   3  10
BRANCH   1  12
ATOM     12  C1  UNL     1      -4.438  -0.053  -0.718  0.00  0.00    +0.000 C 
BRANCH  12  13
ATOM     13  N1  UNL     1      -5.532  -0.209   0.238  0.00  0.00    +0.000 NA
ATOM     14  H1  UNL     1      -5.242  -1.032   0.846  0.00  0.00    +0.000 HD
ATOM     15  H2  UNL     1      -5.497   0.618   0.886  0.00  0.00    +0.000 HD
ENDBRANCH  12  13
ENDBRANCH   1  12
BRANCH   5  16
ATOM     16  O3  UNL     1       1.446  -0.031   0.308  0.00  0.00    +0.000 OA
BRANCH  16  17
ATOM     17  C5  UNL     1       2.797   0.029   0.036  0.00  0.00    +0.000 C 
BRANCH  17  18
ATOM     18  C6  UNL     1       3.548  -0.487   1.270  0.00  0.00    +0.000 C 
BRANCH  18  19
ATOM     19  C7  UNL     1       5.016  -0.431   0.999  0.00  0.00    +0.000 C 
BRANCH  19  20
ATOM     20  O4  UNL     1       5.385   0.875   0.737  0.00  0.00    +0.000 OA
ATOM     21  H13 UNL     1       5.378   1.397   1.572  0.00  0.00    +0.000 HD
ENDBRANCH  19  20
ENDBRANCH  18  19
ENDBRANCH  17  18
ENDBRANCH  16  17
ENDBRANCH   5  16
TORSDOF 8
