REMARK  Name = ./3D_structures\o7_MMV1634384_3D.pdb
REMARK  9 active torsions:
REMARK  status: ('A' for Active; 'I' for Inactive)
REMARK    1  A    between atoms: C2_3  and  C3_4
REMARK    2  A    between atoms: N1_6  and  C4_7
REMARK    3  A    between atoms: C5_8  and  C6_9
REMARK    4  A    between atoms: C14_19  and  S2_20
REMARK    5  A    between atoms: S2_20  and  N3_23
REMARK    6  A    between atoms: N3_23  and  C15_24
REMARK    7  A    between atoms: N3_23  and  C17_26
REMARK    8  A    between atoms: C15_24  and  C16_25
REMARK    9  A    between atoms: C17_26  and  C18_27
REMARK                            x       y       z     vdW  Elec       q    Type
REMARK                         _______ _______ _______ _____ _____    ______ ____
ROOT
ATOM      1 CL1  UNL     1      -0.048   0.597   3.852  0.00  0.00    +0.000 Cl
ATOM      2  C1  UNL     1       1.036   0.922   2.542  0.00  0.00    +0.000 A 
ATOM      3  C2  UNL     1       0.745   0.614   1.248  0.00  0.00    +0.000 A 
ATOM      4  C13 UNL     1       1.602   0.871   0.211  0.00  0.00    +0.000 A 
ATOM      5  C14 UNL     1       2.842   1.478   0.461  0.00  0.00    +0.000 A 
ATOM      6  C19 UNL     1       3.125   1.784   1.760  0.00  0.00    +0.000 A 
ATOM      7  C20 UNL     1       2.253   1.523   2.820  0.00  0.00    +0.000 A 
ENDROOT
BRANCH   3   8
ATOM      8  C3  UNL     1      -0.554  -0.027   0.938  0.00  0.00    +0.000 C 
ATOM      9  O1  UNL     1      -0.544  -1.254   0.966  0.00  0.00    +0.000 OA
ATOM     10  N1  UNL     1      -1.680   0.744   0.644  0.00  0.00    +0.000 N 
ATOM     11  H1  UNL     1      -1.532   1.807   0.665  0.00  0.00    +0.000 HD
BRANCH  10  12
ATOM     12  C4  UNL     1      -2.955   0.261   0.321  0.00  0.00    +0.000 A 
ATOM     13  C5  UNL     1      -3.581  -0.875   0.044  0.00  0.00    +0.000 A 
ATOM     14  C7  UNL     1      -4.913  -0.919  -0.148  0.00  0.00    +0.000 A 
ATOM     15  C8  UNL     1      -5.607   0.268  -0.049  0.00  0.00    +0.000 A 
ATOM     16  S1  UNL     1      -4.361   1.442   0.319  0.00  0.00    +0.000 S 
ATOM     17  C9  UNL     1      -7.082   0.332  -0.243  0.00  0.00    +0.000 C 
ATOM     18  C10 UNL     1      -7.790  -0.787   0.484  0.00  0.00    +0.000 C 
ATOM     19  C11 UNL     1      -6.901  -1.994   0.671  0.00  0.00    +0.000 C 
ATOM     20  C12 UNL     1      -5.884  -2.065  -0.471  0.00  0.00    +0.000 C 
BRANCH  13  21
ATOM     21  C6  UNL     1      -2.822  -2.137  -0.126  0.00  0.00    +0.000 C 
ATOM     22  N2  UNL     1      -2.204  -3.136  -0.276  0.00  0.00    +0.000 NA
ENDBRANCH  13  21
ENDBRANCH  10  12
ENDBRANCH   3   8
BRANCH   5  23
ATOM     23  S2  UNL     1       3.929   1.807  -0.823  0.00  0.00    +0.000 S 
ATOM     24  O2  UNL     1       3.139   2.097  -2.094  0.00  0.00    +0.000 OA
ATOM     25  O3  UNL     1       4.694   3.069  -0.531  0.00  0.00    +0.000 OA
BRANCH  23  26
ATOM     26  N3  UNL     1       5.029   0.576  -1.168  0.00  0.00    +0.000 NA
BRANCH  26  27
ATOM     27  C15 UNL     1       4.516  -0.664  -1.577  0.00  0.00    +0.000 C 
ATOM     28  C16 UNL     1       4.224  -1.644  -0.478  0.00  0.00    +0.000 C 
ENDBRANCH  26  27
BRANCH  26  29
ATOM     29  C17 UNL     1       6.257   0.599  -0.473  0.00  0.00    +0.000 C 
ATOM     30  C18 UNL     1       7.318   1.399  -1.197  0.00  0.00    +0.000 C 
ENDBRANCH  26  29
ENDBRANCH  23  26
ENDBRANCH   5  23
TORSDOF 7
