REMARK  Name = ./3D_structures\o80_MMV1578563_3D.pdb
REMARK  2 active torsions:
REMARK  status: ('A' for Active; 'I' for Inactive)
REMARK    1  A    between atoms: C5_6  and  C6_7
REMARK    2  A    between atoms: C7_8  and  C8_9
REMARK                            x       y       z     vdW  Elec       q    Type
REMARK                         _______ _______ _______ _____ _____    ______ ____
ROOT
ATOM      1  F1  UNL     1      -4.622   0.958   2.074  0.00  0.00    +0.000 F 
ATOM      2  C1  UNL     1      -3.466   0.609   1.428  0.00  0.00    +0.000 A 
ATOM      3  C2  UNL     1      -2.338   1.387   1.535  0.00  0.00    +0.000 A 
ATOM      4  C3  UNL     1      -1.201   0.957   0.842  0.00  0.00    +0.000 A 
ATOM      5  C4  UNL     1      -1.200  -0.197   0.083  0.00  0.00    +0.000 A 
ATOM      6  C5  UNL     1      -0.249  -0.819  -0.682  0.00  0.00    +0.000 A 
ATOM      7  C9  UNL     1      -0.886  -1.964  -1.221  0.00  0.00    +0.000 A 
ATOM      8  N5  UNL     1      -2.145  -2.042  -0.810  0.00  0.00    +0.000 N 
ATOM      9  C10 UNL     1      -2.351  -0.977  -0.018  0.00  0.00    +0.000 A 
ATOM     10  C11 UNL     1      -3.470  -0.543   0.670  0.00  0.00    +0.000 A 
ATOM     11  H7  UNL     1      -2.863  -2.791  -1.051  0.00  0.00    +0.000 HD
ENDROOT
BRANCH   6  12
ATOM     12  C6  UNL     1       1.132  -0.491  -0.894  0.00  0.00    +0.000 C 
ATOM     13  C7  UNL     1       1.902   0.377  -0.319  0.00  0.00    +0.000 C 
BRANCH  13  14
ATOM     14  C8  UNL     1       3.332   0.537  -0.724  0.00  0.00    +0.000 A 
ATOM     15  N1  UNL     1       4.015  -0.108  -1.651  0.00  0.00    +0.000 NA
ATOM     16  N2  UNL     1       5.258   0.362  -1.667  0.00  0.00    +0.000 NA
ATOM     17  N3  UNL     1       5.324   1.297  -0.745  0.00  0.00    +0.000 NA
ATOM     18  N4  UNL     1       4.140   1.416  -0.154  0.00  0.00    +0.000 N 
ATOM     19  H5  UNL     1       3.965   2.104   0.614  0.00  0.00    +0.000 HD
ENDBRANCH  13  14
ENDBRANCH   6  12
TORSDOF 2
