REMARK  Name = ./3D_structures\o8_MMV1634383_3D.pdb
REMARK  9 active torsions:
REMARK  status: ('A' for Active; 'I' for Inactive)
REMARK    1  A    between atoms: N1_3  and  C14_19
REMARK    2  A    between atoms: C4_7  and  N3_9
REMARK    3  A    between atoms: N3_9  and  C5_10
REMARK    4  A    between atoms: C7_12  and  C12_17
REMARK    5  A    between atoms: C8_13  and  C9_14
REMARK    6  A    between atoms: C12_17  and  C13_18
REMARK    7  A    between atoms: C14_19  and  C15_20
REMARK    8  A    between atoms: C15_20  and  N4_21
REMARK    9  A    between atoms: C18_25  and  C19_27
REMARK                            x       y       z     vdW  Elec       q    Type
REMARK                         _______ _______ _______ _____ _____    ______ ____
ROOT
ATOM      1  O1  UNL     1      -1.051   1.101  -0.547  0.00  0.00    +0.000 OA
ATOM      2  C1  UNL     1      -1.370   0.248   0.337  0.00  0.00    +0.000 A 
ATOM      3  N1  UNL     1      -0.401  -0.382   0.985  0.00  0.00    +0.000 N 
ATOM      4  C2  UNL     1      -0.756  -1.289   1.924  0.00  0.00    +0.000 A 
ATOM      5  O2  UNL     1       0.187  -1.893   2.544  0.00  0.00    +0.000 OA
ATOM      6  C3  UNL     1      -2.075  -1.554   2.204  0.00  0.00    +0.000 A 
ATOM      7  C4  UNL     1      -3.094  -0.886   1.518  0.00  0.00    +0.000 A 
ATOM      8  N2  UNL     1      -2.686  -0.005   0.603  0.00  0.00    +0.000 N 
ATOM      9  H2  UNL     1      -3.367   0.527   0.025  0.00  0.00    +0.000 HD
ENDROOT
BRANCH   7  10
ATOM     10  N3  UNL     1      -4.409  -1.222   1.836  0.00  0.00    +0.000 N 
ATOM     11  H3  UNL     1      -4.581  -1.981   2.592  0.00  0.00    +0.000 HD
BRANCH  10  12
ATOM     12  C5  UNL     1      -5.613  -0.707   1.308  0.00  0.00    +0.000 A 
ATOM     13  C6  UNL     1      -5.860   0.600   0.974  0.00  0.00    +0.000 A 
ATOM     14  C7  UNL     1      -7.082   1.009   0.422  0.00  0.00    +0.000 A 
ATOM     15  C8  UNL     1      -8.093   0.103   0.192  0.00  0.00    +0.000 A 
ATOM     16  C9  UNL     1      -9.397   0.534  -0.397  0.00  0.00    +0.000 C 
ATOM     17  C10 UNL     1      -7.861  -1.212   0.523  0.00  0.00    +0.000 A 
ATOM     18  C11 UNL     1      -6.662  -1.606   1.063  0.00  0.00    +0.000 A 
BRANCH  14  19
ATOM     19  C12 UNL     1      -7.279   2.452   0.078  0.00  0.00    +0.000 C 
ATOM     20  C13 UNL     1      -7.181   2.710  -1.391  0.00  0.00    +0.000 C 
ENDBRANCH  14  19
ENDBRANCH  10  12
ENDBRANCH   7  10
BRANCH   3  21
ATOM     21  C14 UNL     1       1.033  -0.152   0.760  0.00  0.00    +0.000 C 
BRANCH  21  22
ATOM     22  C15 UNL     1       1.476  -1.107  -0.315  0.00  0.00    +0.000 C 
BRANCH  22  23
ATOM     23  N4  UNL     1       2.880  -0.933  -0.569  0.00  0.00    +0.000 NA
ATOM     24  C16 UNL     1       3.335  -1.729  -1.699  0.00  0.00    +0.000 C 
ATOM     25  C17 UNL     1       4.796  -1.979  -1.617  0.00  0.00    +0.000 C 
ATOM     26  N5  UNL     1       5.552  -0.923  -0.896  0.00  0.00    +0.000 N 
ATOM     27  C18 UNL     1       6.731  -0.436  -1.473  0.00  0.00    +0.000 C 
ATOM     28  O3  UNL     1       6.990  -1.035  -2.613  0.00  0.00    +0.000 OA
ATOM     29  C25 UNL     1       5.008  -0.509   0.356  0.00  0.00    +0.000 C 
ATOM     30  C26 UNL     1       3.719  -1.369   0.559  0.00  0.00    +0.000 C 
BRANCH  27  31
ATOM     31  C19 UNL     1       7.659   0.563  -1.041  0.00  0.00    +0.000 A 
ATOM     32  C20 UNL     1       8.804   0.746  -1.857  0.00  0.00    +0.000 A 
ATOM     33  C21 UNL     1       9.725   1.693  -1.510  0.00  0.00    +0.000 A 
ATOM     34  C22 UNL     1       9.551   2.462  -0.385  0.00  0.00    +0.000 A 
ATOM     35  C23 UNL     1       8.454   2.307   0.421  0.00  0.00    +0.000 A 
ATOM     36  C24 UNL     1       7.502   1.339   0.075  0.00  0.00    +0.000 A 
ENDBRANCH  27  31
ENDBRANCH  22  23
ENDBRANCH  21  22
ENDBRANCH   3  21
TORSDOF 7
