REMARK  Name = ./3D_structures\o9_MMV1613560_3D.pdb
REMARK  4 active torsions:
REMARK  status: ('A' for Active; 'I' for Inactive)
REMARK    1  A    between atoms: C1_2  and  C2_4
REMARK    2  A    between atoms: N3_12  and  O3_13
REMARK    3  A    between atoms: O3_13  and  S1_14
REMARK    4  A    between atoms: S1_14  and  O4_15
REMARK                            x       y       z     vdW  Elec       q    Type
REMARK                         _______ _______ _______ _____ _____    ______ ____
ROOT
ATOM      1  C2  UNL     1      -2.061   0.255  -0.434  0.00  0.00    +0.000 C 
ATOM      2  C3  UNL     1      -2.077  -1.288  -0.060  0.00  0.00    +0.000 C 
ATOM      3  C4  UNL     1      -0.709  -1.863  -0.140  0.00  0.00    +0.000 C 
ATOM      4  C5  UNL     1       0.462  -1.191   0.513  0.00  0.00    +0.000 C 
ATOM      5  C6  UNL     1      -0.145   0.160   1.086  0.00  0.00    +0.000 C 
ATOM      6  N2  UNL     1      -0.671   0.413  -0.287  0.00  0.00    +0.000 N 
ATOM      7  C7  UNL     1       0.506   0.520  -1.011  0.00  0.00    +0.000 C 
ATOM      8  O2  UNL     1       0.881   1.268  -1.931  0.00  0.00    +0.000 OA
ATOM      9  N3  UNL     1       1.384  -0.541  -0.456  0.00  0.00    +0.000 N 
ENDROOT
BRANCH   1  11
ATOM     10  N1  UNL     1      -2.438   1.990   1.360  0.00  0.00    +0.000 N 
ATOM     11  C1  UNL     1      -2.926   1.011   0.441  0.00  0.00    +0.000 C 
ATOM     12  O1  UNL     1      -4.165   0.819   0.412  0.00  0.00    +0.000 OA
ATOM     13  H1  UNL     1      -2.626   1.935   2.375  0.00  0.00    +0.000 HD
ATOM     14  H2  UNL     1      -1.866   2.810   0.997  0.00  0.00    +0.000 HD
ENDBRANCH   1  11
BRANCH   9  15
ATOM     15  O3  UNL     1       2.637  -0.788  -0.783  0.00  0.00    +0.000 OA
BRANCH  15  16
ATOM     16  S1  UNL     1       3.750   0.373  -0.391  0.00  0.00    +0.000 S 
ATOM     17  O5  UNL     1       4.518   0.789  -1.638  0.00  0.00    +0.000 OA
ATOM     18  O6  UNL     1       3.181   1.590   0.254  0.00  0.00    +0.000 OA
BRANCH  16  19
ATOM     19  O4  UNL     1       4.919  -0.226   0.693  0.00  0.00    +0.000 OA
ATOM     20  H11 UNL     1       5.546   0.528   0.817  0.00  0.00    +0.000 HD
ENDBRANCH  16  19
ENDBRANCH  15  16
ENDBRANCH   9  15
TORSDOF 4
