REMARK  Name = ./3D_structures\o10_MMV1645152_3D.pdb
REMARK  1 active torsions:
REMARK  status: ('A' for Active; 'I' for Inactive)
REMARK    1  A    between atoms: C2_3  and  C5_10
REMARK                            x       y       z     vdW  Elec       q    Type
REMARK                         _______ _______ _______ _____ _____    ______ ____
ROOT
ATOM      1 BR1  UNL     1       0.055  -3.070  -1.352  0.00  0.00    +0.000 Br
ATOM      2  C1  UNL     1      -1.020  -1.700  -0.567  0.00  0.00    +0.000 A 
ATOM      3  C2  UNL     1      -0.536  -0.515  -0.094  0.00  0.00    +0.000 A 
ATOM      4  N1  UNL     1      -1.421   0.399   0.391  0.00  0.00    +0.000 N 
ATOM      5  C3  UNL     1      -2.761   0.191   0.429  0.00  0.00    +0.000 A 
ATOM      6  N2  UNL     1      -3.206  -0.984  -0.041  0.00  0.00    +0.000 NA
ATOM      7  C4  UNL     1      -2.401  -1.925  -0.531  0.00  0.00    +0.000 A 
ATOM      8  O1  UNL     1      -2.898  -3.002  -0.953  0.00  0.00    +0.000 OA
ATOM      9  N3  UNL     1      -3.642   1.181   0.947  0.00  0.00    +0.000 N 
ATOM     10  H1  UNL     1      -1.112   1.312   0.779  0.00  0.00    +0.000 HD
ATOM     11  H2  UNL     1      -4.476   1.550   0.445  0.00  0.00    +0.000 HD
ATOM     12  H3  UNL     1      -3.442   1.566   1.894  0.00  0.00    +0.000 HD
ENDROOT
BRANCH   3  13
ATOM     13  C5  UNL     1       0.877  -0.165  -0.147  0.00  0.00    +0.000 A 
ATOM     14  C6  UNL     1       1.225   1.197  -0.137  0.00  0.00    +0.000 A 
ATOM     15  C7  UNL     1       2.496   1.662  -0.118  0.00  0.00    +0.000 A 
ATOM     16  C8  UNL     1       3.551   0.778  -0.108  0.00  0.00    +0.000 A 
ATOM     17  C9  UNL     1       3.254  -0.565  -0.117  0.00  0.00    +0.000 A 
ATOM     18  C10 UNL     1       1.928  -1.028  -0.136  0.00  0.00    +0.000 A 
ATOM     19 CL1  UNL     1       2.756   3.402  -0.106  0.00  0.00    +0.000 Cl
ENDBRANCH   3  13
TORSDOF 1
