REMARK  Name = ./3D_structures\o11_MMV1633677_3D.pdb
REMARK  4 active torsions:
REMARK  status: ('A' for Active; 'I' for Inactive)
REMARK    1  A    between atoms: C2_3  and  N1_10
REMARK    2  A    between atoms: C3_5  and  C5_8
REMARK    3  A    between atoms: C4_6  and  O2_7
REMARK    4  A    between atoms: C5_8  and  O3_9
REMARK                            x       y       z     vdW  Elec       q    Type
REMARK                         _______ _______ _______ _____ _____    ______ ____
ROOT
ATOM      1  N1  UNL     1       0.487  -1.279  -0.710  0.00  0.00    +0.000 N 
ATOM      2  C6  UNL     1       1.602  -0.603  -0.318  0.00  0.00    +0.000 A 
ATOM      3  C7  UNL     1       2.734  -1.339  -0.643  0.00  0.00    +0.000 A 
ATOM      4  C8  UNL     1       3.986  -0.846  -0.338  0.00  0.00    +0.000 A 
ATOM      5  O4  UNL     1       5.030  -1.486  -0.618  0.00  0.00    +0.000 OA
ATOM      6  N2  UNL     1       4.034   0.348   0.272  0.00  0.00    +0.000 N 
ATOM      7  C9  UNL     1       2.937   1.070   0.592  0.00  0.00    +0.000 A 
ATOM      8  N3  UNL     1       1.723   0.584   0.292  0.00  0.00    +0.000 NA
ATOM      9  N4  UNL     1       3.091   2.336   1.244  0.00  0.00    +0.000 N 
ATOM     10  N5  UNL     1       2.281  -2.446  -1.227  0.00  0.00    +0.000 NA
ATOM     11  C10 UNL     1       0.938  -2.415  -1.269  0.00  0.00    +0.000 A 
ATOM     12  H9  UNL     1       4.973   0.739   0.512  0.00  0.00    +0.000 HD
ATOM     13  H10 UNL     1       2.243   2.878   1.484  0.00  0.00    +0.000 HD
ATOM     14  H11 UNL     1       4.015   2.728   1.482  0.00  0.00    +0.000 HD
ENDROOT
BRANCH   1  17
ATOM     15  F1  UNL     1      -1.662  -2.517   0.981  0.00  0.00    +0.000 F 
ATOM     16  C1  UNL     1      -1.440  -1.188   0.819  0.00  0.00    +0.000 C 
ATOM     17  C2  UNL     1      -0.880  -0.885  -0.569  0.00  0.00    +0.000 C 
ATOM     18  O1  UNL     1      -1.101   0.469  -0.669  0.00  0.00    +0.000 OA
ATOM     19  C3  UNL     1      -2.471   0.560  -0.370  0.00  0.00    +0.000 C 
ATOM     20  C4  UNL     1      -2.708  -0.359   0.804  0.00  0.00    +0.000 C 
BRANCH  20  21
ATOM     21  O2  UNL     1      -3.772  -1.227   0.595  0.00  0.00    +0.000 OA
ATOM     22  H5  UNL     1      -3.554  -1.930  -0.045  0.00  0.00    +0.000 HD
ENDBRANCH  20  21
BRANCH  19  23
ATOM     23  C5  UNL     1      -2.805   1.959   0.056  0.00  0.00    +0.000 C 
BRANCH  23  24
ATOM     24  O3  UNL     1      -2.495   2.860  -0.987  0.00  0.00    +0.000 OA
ATOM     25  H8  UNL     1      -3.139   2.773  -1.707  0.00  0.00    +0.000 HD
ENDBRANCH  23  24
ENDBRANCH  19  23
ENDBRANCH   1  17
TORSDOF 4
