REMARK  Name = ./3D_structures\o12_MMV1593520_3D.pdb
REMARK  4 active torsions:
REMARK  status: ('A' for Active; 'I' for Inactive)
REMARK    1  A    between atoms: O1_1  and  C1_2
REMARK    2  A    between atoms: C1_2  and  C2_3
REMARK    3  A    between atoms: C3_5  and  N4_11
REMARK    4  A    between atoms: C5_7  and  N1_8
REMARK                            x       y       z     vdW  Elec       q    Type
REMARK                         _______ _______ _______ _____ _____    ______ ____
ROOT
ATOM      1  C2  UNL     1      -1.836  -0.888   0.234  0.00  0.00    +0.000 C 
ATOM      2  O2  UNL     1      -0.641  -1.064   0.909  0.00  0.00    +0.000 OA
ATOM      3  C3  UNL     1      -0.021   0.148   1.046  0.00  0.00    +0.000 C 
ATOM      4  C4  UNL     1      -0.820   1.212   0.369  0.00  0.00    +0.000 C 
ATOM      5  C5  UNL     1      -1.773   0.415  -0.486  0.00  0.00    +0.000 C 
ENDROOT
BRANCH   3   6
ATOM      6  N4  UNL     1       1.359   0.156   0.658  0.00  0.00    +0.000 N 
ATOM      7  C6  UNL     1       1.757  -0.578  -0.389  0.00  0.00    +0.000 A 
ATOM      8  C7  UNL     1       3.068  -0.605  -0.804  0.00  0.00    +0.000 A 
ATOM      9  C8  UNL     1       3.990   0.168  -0.088  0.00  0.00    +0.000 A 
ATOM     10  O3  UNL     1       5.194   0.143  -0.468  0.00  0.00    +0.000 OA
ATOM     11  N5  UNL     1       3.567   0.899   0.963  0.00  0.00    +0.000 N 
ATOM     12  C9  UNL     1       2.268   0.890   1.328  0.00  0.00    +0.000 A 
ATOM     13  O4  UNL     1       1.895   1.578   2.309  0.00  0.00    +0.000 OA
ATOM     14  H11 UNL     1       4.264   1.474   1.492  0.00  0.00    +0.000 HD
ENDBRANCH   3   6
BRANCH   5  15
ATOM     15  N1  UNL     1      -3.046   1.086  -0.599  0.00  0.00    +0.000 NA
ATOM     16  N2  UNL     1      -3.058   2.323  -0.642  0.00  0.00    +0.000 NA
ATOM     17  N3  UNL     1      -3.204   3.508  -0.303  0.00  0.00    +0.000 NA
ENDBRANCH   5  15
BRANCH   1  18
ATOM     18  C1  UNL     1      -1.989  -2.062  -0.732  0.00  0.00    +0.000 C 
BRANCH  18  19
ATOM     19  O1  UNL     1      -3.162  -1.981  -1.462  0.00  0.00    +0.000 OA
ATOM     20  H1  UNL     1      -3.555  -2.885  -1.546  0.00  0.00    +0.000 HD
ENDBRANCH  18  19
ENDBRANCH   1  18
TORSDOF 4
