REMARK  Name = ./3D_structures\o13_MMV1581029_3D.pdb
REMARK  4 active torsions:
REMARK  status: ('A' for Active; 'I' for Inactive)
REMARK    1  A    between atoms: N1_2  and  C1_4
REMARK    2  A    between atoms: C3_6  and  N2_10
REMARK    3  A    between atoms: N3_13  and  C8_14
REMARK    4  A    between atoms: C9_15  and  C14_20
REMARK                            x       y       z     vdW  Elec       q    Type
REMARK                         _______ _______ _______ _____ _____    ______ ____
ROOT
ATOM      1  N2  UNL     1       0.991  -1.100  -0.361  0.00  0.00    +0.000 N 
ATOM      2  C7  UNL     1       0.006  -0.158  -0.035  0.00  0.00    +0.000 C 
ATOM      3  O3  UNL     1       0.298   0.935   0.483  0.00  0.00    +0.000 OA
ATOM      4  N3  UNL     1      -1.385  -0.427  -0.290  0.00  0.00    +0.000 N 
ATOM      5  H5  UNL     1       0.683  -2.004  -0.793  0.00  0.00    +0.000 HD
ATOM      6  H6  UNL     1      -1.558  -1.381  -0.734  0.00  0.00    +0.000 HD
ENDROOT
BRANCH   4   7
ATOM      7  C8  UNL     1      -2.459   0.437  -0.008  0.00  0.00    +0.000 A 
ATOM      8  C9  UNL     1      -3.723  -0.059  -0.356  0.00  0.00    +0.000 A 
ATOM      9  C10 UNL     1      -4.839   0.673  -0.135  0.00  0.00    +0.000 A 
ATOM     10  C11 UNL     1      -4.763   1.923   0.435  0.00  0.00    +0.000 A 
ATOM     11  C12 UNL     1      -3.537   2.437   0.788  0.00  0.00    +0.000 A 
ATOM     12  C13 UNL     1      -2.397   1.671   0.554  0.00  0.00    +0.000 A 
ATOM     13  C14 UNL     1      -3.894  -1.408  -0.981  0.00  0.00    +0.000 C 
ENDBRANCH   4   7
BRANCH   1  16
ATOM     14  C1  UNL     1       4.378   0.333   0.373  0.00  0.00    +0.000 A 
ATOM     15  C2  UNL     1       2.995   0.251   0.169  0.00  0.00    +0.000 A 
ATOM     16  C3  UNL     1       2.382  -0.931  -0.155  0.00  0.00    +0.000 A 
ATOM     17  C4  UNL     1       3.229  -2.043  -0.269  0.00  0.00    +0.000 A 
ATOM     18  C5  UNL     1       4.578  -2.023  -0.082  0.00  0.00    +0.000 A 
ATOM     19  C6  UNL     1       5.148  -0.801   0.245  0.00  0.00    +0.000 A 
BRANCH  14  21
ATOM     20  O1  UNL     1       4.217   2.728   0.842  0.00  0.00    +0.000 OA
ATOM     21  N1  UNL     1       4.962   1.585   0.709  0.00  0.00    +0.000 N 
ATOM     22  O2  UNL     1       6.188   1.667   0.891  0.00  0.00    +0.000 OA
ENDBRANCH  14  21
ENDBRANCH   1  16
TORSDOF 3
