REMARK  Name = ./3D_structures\o14_MMV1580794_3D.pdb
REMARK  17 active torsions:
REMARK  status: ('A' for Active; 'I' for Inactive)
REMARK    1  A    between atoms: C1_1  and  C2_2
REMARK    2  A    between atoms: C2_2  and  N1_3
REMARK    3  A    between atoms: C2_2  and  C15_19
REMARK    4  A    between atoms: C3_4  and  C4_6
REMARK    5  A    between atoms: N2_8  and  C5_9
REMARK    6  A    between atoms: C10_14  and  C11_15
REMARK    7  A    between atoms: C11_15  and  C12_16
REMARK    8  A    between atoms: C11_15  and  C13_17
REMARK    9  A    between atoms: C11_15  and  C14_18
REMARK   10  A    between atoms: N3_21  and  C16_22
REMARK   11  A    between atoms: C16_22  and  C17_23
REMARK   12  A    between atoms: C16_22  and  C19_27
REMARK   13  A    between atoms: C17_23  and  C18_24
REMARK   14  A    between atoms: C18_24  and  O5_26
REMARK   15  A    between atoms: C19_27  and  C20_29
REMARK   16  A    between atoms: C20_29  and  O7_30
REMARK   17  A    between atoms: O7_30  and  C21_31
REMARK                            x       y       z     vdW  Elec       q    Type
REMARK                         _______ _______ _______ _____ _____    ______ ____
ROOT
ATOM      1  C15 UNL     1       1.709  -1.637   0.450  0.00  0.00    +0.000 C 
ATOM      2  O3  UNL     1       1.482  -0.953  -0.548  0.00  0.00    +0.000 OA
ATOM      3  N3  UNL     1       3.026  -1.763   0.965  0.00  0.00    +0.000 N 
ATOM      4  H20 UNL     1       3.146  -2.355   1.788  0.00  0.00    +0.000 HD
ENDROOT
BRANCH   1   6
ATOM      5  C1  UNL     1       0.838  -3.816   1.205  0.00  0.00    +0.000 C 
ATOM      6  C2  UNL     1       0.579  -2.338   1.127  0.00  0.00    +0.000 C 
BRANCH   6   7
ATOM      7  N1  UNL     1      -0.678  -2.106   0.476  0.00  0.00    +0.000 N 
ATOM      8  C3  UNL     1      -1.669  -1.192   0.902  0.00  0.00    +0.000 C 
ATOM      9  O1  UNL     1      -1.440  -0.516   1.932  0.00  0.00    +0.000 OA
ATOM     10  H5  UNL     1      -0.918  -2.647  -0.404  0.00  0.00    +0.000 HD
BRANCH   8  11
ATOM     11  C4  UNL     1      -2.944  -0.994   0.207  0.00  0.00    +0.000 C 
ATOM     12  O2  UNL     1      -3.144  -1.739  -0.768  0.00  0.00    +0.000 OA
ATOM     13  N2  UNL     1      -3.905  -0.044   0.572  0.00  0.00    +0.000 N 
ATOM     14  H6  UNL     1      -3.619   0.533   1.419  0.00  0.00    +0.000 HD
BRANCH  13  15
ATOM     15  C5  UNL     1      -5.145   0.206  -0.023  0.00  0.00    +0.000 A 
ATOM     16  C6  UNL     1      -5.702  -0.621  -1.013  0.00  0.00    +0.000 A 
ATOM     17  C7  UNL     1      -6.934  -0.357  -1.572  0.00  0.00    +0.000 A 
ATOM     18  C8  UNL     1      -7.661   0.740  -1.168  0.00  0.00    +0.000 A 
ATOM     19  C9  UNL     1      -7.129   1.569  -0.194  0.00  0.00    +0.000 A 
ATOM     20  C10 UNL     1      -5.870   1.303   0.381  0.00  0.00    +0.000 A 
BRANCH  20  21
ATOM     21  C11 UNL     1      -5.395   2.223   1.387  0.00  0.00    +0.000 C 
ATOM     22  C12 UNL     1      -5.138   1.722   2.757  0.00  0.00    +0.000 C 
ATOM     23  C13 UNL     1      -4.128   2.882   0.849  0.00  0.00    +0.000 C 
ATOM     24  C14 UNL     1      -6.403   3.387   1.510  0.00  0.00    +0.000 C 
ENDBRANCH  20  21
ENDBRANCH  13  15
ENDBRANCH   8  11
ENDBRANCH   6   7
ENDBRANCH   1   6
BRANCH   3  25
ATOM     25  C16 UNL     1       4.155  -1.073   0.335  0.00  0.00    +0.000 C 
BRANCH  25  26
ATOM     26  C19 UNL     1       5.169  -1.970  -0.198  0.00  0.00    +0.000 C 
ATOM     27  O6  UNL     1       5.009  -3.199   0.071  0.00  0.00    +0.000 OA
BRANCH  26  28
ATOM     28  C20 UNL     1       6.316  -1.606  -0.985  0.00  0.00    +0.000 C 
BRANCH  28  29
ATOM     29  O7  UNL     1       6.523  -0.400  -1.558  0.00  0.00    +0.000 OA
BRANCH  29  30
ATOM     30  C21 UNL     1       5.928   0.383  -2.490  0.00  0.00    +0.000 A 
ATOM     31  C22 UNL     1       6.199   0.077  -3.851  0.00  0.00    +0.000 A 
ATOM     32  F1  UNL     1       7.035  -0.982  -4.084  0.00  0.00    +0.000 F 
ATOM     33  C23 UNL     1       5.668   0.790  -4.886  0.00  0.00    +0.000 A 
ATOM     34  F2  UNL     1       5.956   0.456  -6.174  0.00  0.00    +0.000 F 
ATOM     35  C24 UNL     1       4.837   1.845  -4.572  0.00  0.00    +0.000 A 
ATOM     36  C25 UNL     1       4.557   2.167  -3.288  0.00  0.00    +0.000 A 
ATOM     37  F3  UNL     1       3.732   3.219  -3.033  0.00  0.00    +0.000 F 
ATOM     38  C26 UNL     1       5.108   1.430  -2.213  0.00  0.00    +0.000 A 
ATOM     39  F4  UNL     1       4.791   1.879  -0.968  0.00  0.00    +0.000 F 
ENDBRANCH  29  30
ENDBRANCH  28  29
ENDBRANCH  26  28
ENDBRANCH  25  26
BRANCH  25  40
ATOM     40  C17 UNL     1       4.740  -0.165   1.413  0.00  0.00    +0.000 C 
BRANCH  40  41
ATOM     41  C18 UNL     1       5.213  -0.982   2.546  0.00  0.00    +0.000 C 
ATOM     42  O4  UNL     1       5.236  -2.222   2.490  0.00  0.00    +0.000 OA
BRANCH  41  43
ATOM     43  O5  UNL     1       5.652  -0.368   3.729  0.00  0.00    +0.000 OA
ATOM     44  H24 UNL     1       6.230  -0.854   4.406  0.00  0.00    +0.000 HD
ENDBRANCH  41  43
ENDBRANCH  40  41
ENDBRANCH  25  40
ENDBRANCH   3  25
TORSDOF 13
