REMARK  Name = ./3D_structures\o15_MMV001793_3D.pdb
REMARK  12 active torsions:
REMARK  status: ('A' for Active; 'I' for Inactive)
REMARK    1  A    between atoms: C1_2  and  C8_11
REMARK    2  A    between atoms: N1_3  and  C2_4
REMARK    3  A    between atoms: C5_7  and  O2_8
REMARK    4  A    between atoms: C9_12  and  C10_13
REMARK    5  A    between atoms: C9_12  and  C26_29
REMARK    6  A    between atoms: C11_14  and  C12_15
REMARK    7  A    between atoms: C13_16  and  C14_17
REMARK    8  A    between atoms: C13_16  and  C25_28
REMARK    9  A    between atoms: C15_18  and  C16_19
REMARK   10  A    between atoms: C17_20  and  C24_27
REMARK   11  A    between atoms: C21_24  and  C22_25
REMARK   12  A    between atoms: C21_24  and  C23_26
REMARK                            x       y       z     vdW  Elec       q    Type
REMARK                         _______ _______ _______ _____ _____    ______ ____
ROOT
ATOM      1  C10 UNL     1       1.829   0.383  -0.660  0.00  0.00    +0.000 C 
ATOM      2  C11 UNL     1       0.881  -0.046   0.141  0.00  0.00    +0.000 C 
ENDROOT
BRANCH   1   4
ATOM      3  C8  UNL     1       4.094   0.831  -1.288  0.00  0.00    +0.000 C 
ATOM      4  C9  UNL     1       3.269   0.365  -0.400  0.00  0.00    +0.000 C 
ATOM      5  C26 UNL     1       3.756  -0.241   0.847  0.00  0.00    +0.000 C 
BRANCH   3   7
ATOM      6  O1  UNL     1       6.078   1.405  -2.347  0.00  0.00    +0.000 OA
ATOM      7  C1  UNL     1       5.517   0.923  -1.252  0.00  0.00    +0.000 C 
ATOM      8  N1  UNL     1       6.463   0.609  -0.282  0.00  0.00    +0.000 N 
ATOM      9  H1  UNL     1       6.102   0.240   0.648  0.00  0.00    +0.000 HD
BRANCH   8  10
ATOM     10  C2  UNL     1       7.887   0.761  -0.389  0.00  0.00    +0.000 A 
ATOM     11  C3  UNL     1       8.672   0.057   0.519  0.00  0.00    +0.000 A 
ATOM     12  C4  UNL     1      10.047   0.145   0.514  0.00  0.00    +0.000 A 
ATOM     13  C5  UNL     1      10.679   0.944  -0.404  0.00  0.00    +0.000 A 
ATOM     14  C6  UNL     1       9.925   1.649  -1.310  0.00  0.00    +0.000 A 
ATOM     15  C7  UNL     1       8.525   1.542  -1.284  0.00  0.00    +0.000 A 
BRANCH  13  16
ATOM     16  O2  UNL     1      12.059   1.045  -0.423  0.00  0.00    +0.000 OA
ATOM     17  H4  UNL     1      12.553   0.379  -1.010  0.00  0.00    +0.000 HD
ENDBRANCH  13  16
ENDBRANCH   8  10
ENDBRANCH   3   7
ENDBRANCH   1   4
BRANCH   2  18
ATOM     18  C12 UNL     1      -0.514   0.049  -0.280  0.00  0.00    +0.000 C 
ATOM     19  C13 UNL     1      -1.485  -0.375   0.495  0.00  0.00    +0.000 C 
ATOM     20  C25 UNL     1      -1.308  -0.974   1.824  0.00  0.00    +0.000 C 
BRANCH  19  21
ATOM     21  C14 UNL     1      -2.876  -0.229  -0.035  0.00  0.00    +0.000 C 
ATOM     22  C15 UNL     1      -3.908  -0.621   0.650  0.00  0.00    +0.000 C 
BRANCH  22  23
ATOM     23  C16 UNL     1      -5.314  -0.535   0.241  0.00  0.00    +0.000 C 
ATOM     24  C17 UNL     1      -6.208  -0.988   1.139  0.00  0.00    +0.000 C 
ATOM     25  C18 UNL     1      -7.669  -0.988   0.931  0.00  0.00    +0.000 C 
ATOM     26  C19 UNL     1      -8.034  -0.049  -0.221  0.00  0.00    +0.000 C 
ATOM     27  C20 UNL     1      -7.140  -0.374  -1.377  0.00  0.00    +0.000 C 
ATOM     28  C21 UNL     1      -5.672  -0.003  -1.082  0.00  0.00    +0.000 C 
ATOM     29  C22 UNL     1      -4.893  -0.631  -2.234  0.00  0.00    +0.000 C 
ATOM     30  C23 UNL     1      -5.580   1.527  -1.152  0.00  0.00    +0.000 C 
ATOM     31  C24 UNL     1      -5.719  -1.528   2.430  0.00  0.00    +0.000 C 
ENDBRANCH  22  23
ENDBRANCH  19  21
ENDBRANCH   2  18
TORSDOF 7
