REMARK  Name = ./3D_structures\o16_MMV251679_3D.pdb
REMARK  4 active torsions:
REMARK  status: ('A' for Active; 'I' for Inactive)
REMARK    1  A    between atoms: S1_1  and  N1_4
REMARK    2  A    between atoms: S1_1  and  C7_12
REMARK    3  A    between atoms: N1_4  and  C1_5
REMARK    4  A    between atoms: C4_8  and  O3_9
REMARK                            x       y       z     vdW  Elec       q    Type
REMARK                         _______ _______ _______ _____ _____    ______ ____
ROOT
ATOM      1  S1  UNL     1       0.258   1.691   0.629  0.00  0.00    +0.000 S 
ATOM      2  O1  UNL     1       1.027   2.757   1.382  0.00  0.00    +0.000 OA
ATOM      3  O2  UNL     1       0.211   2.171  -0.832  0.00  0.00    +0.000 OA
ENDROOT
BRANCH   1   4
ATOM      4  C7  UNL     1       1.211   0.234   0.601  0.00  0.00    +0.000 A 
ATOM      5  C8  UNL     1       0.886  -0.898   1.296  0.00  0.00    +0.000 A 
ATOM      6  C9  UNL     1       1.731  -1.983   1.284  0.00  0.00    +0.000 A 
ATOM      7  C10 UNL     1       2.909  -1.969   0.586  0.00  0.00    +0.000 A 
ATOM      8  C11 UNL     1       3.236  -0.826  -0.115  0.00  0.00    +0.000 A 
ATOM      9  C12 UNL     1       4.431  -0.773  -0.841  0.00  0.00    +0.000 A 
ATOM     10  C13 UNL     1       4.728   0.378  -1.528  0.00  0.00    +0.000 A 
ATOM     11  C14 UNL     1       3.870   1.455  -1.505  0.00  0.00    +0.000 A 
ATOM     12  N2  UNL     1       2.725   1.397  -0.807  0.00  0.00    +0.000 NA
ATOM     13  C15 UNL     1       2.417   0.278  -0.127  0.00  0.00    +0.000 A 
ENDBRANCH   1   4
BRANCH   1  14
ATOM     14  N1  UNL     1      -1.293   1.527   1.259  0.00  0.00    +0.000 N 
ATOM     15  H1  UNL     1      -1.493   2.067   2.177  0.00  0.00    +0.000 HD
BRANCH  14  16
ATOM     16  C1  UNL     1      -2.330   0.757   0.707  0.00  0.00    +0.000 A 
ATOM     17  C2  UNL     1      -2.214  -0.403   0.020  0.00  0.00    +0.000 A 
ATOM     18  C3  UNL     1      -3.337  -1.051  -0.514  0.00  0.00    +0.000 A 
ATOM     19  C4  UNL     1      -4.609  -0.547  -0.370  0.00  0.00    +0.000 A 
ATOM     20  C5  UNL     1      -4.708   0.635   0.332  0.00  0.00    +0.000 A 
ATOM     21  C6  UNL     1      -3.624   1.284   0.861  0.00  0.00    +0.000 A 
BRANCH  19  22
ATOM     22  O3  UNL     1      -5.710  -1.199  -0.903  0.00  0.00    +0.000 OA
ATOM     23  H4  UNL     1      -6.231  -1.898  -0.375  0.00  0.00    +0.000 HD
ENDBRANCH  19  22
ENDBRANCH  14  16
ENDBRANCH   1  14
TORSDOF 4
