REMARK  Name = ./3D_structures\o17_MMV003291_3D.pdb
REMARK  4 active torsions:
REMARK  status: ('A' for Active; 'I' for Inactive)
REMARK    1  A    between atoms: C1_2  and  C2_5
REMARK    2  A    between atoms: C5_8  and  N1_9
REMARK    3  A    between atoms: C6_10  and  C7_12
REMARK    4  A    between atoms: C8_13  and  C10_17
REMARK                            x       y       z     vdW  Elec       q    Type
REMARK                         _______ _______ _______ _____ _____    ______ ____
ROOT
ATOM      1  C2  UNL     1       3.416   0.449   0.640  0.00  0.00    +0.000 A 
ATOM      2  C3  UNL     1       2.964  -0.484  -0.214  0.00  0.00    +0.000 A 
ATOM      3  C4  UNL     1       1.577  -0.687  -0.302  0.00  0.00    +0.000 A 
ATOM      4  C5  UNL     1       0.666   0.020   0.446  0.00  0.00    +0.000 A 
ATOM      5  C11 UNL     1       1.197   0.975   1.318  0.00  0.00    +0.000 A 
ATOM      6  C12 UNL     1       2.561   1.181   1.408  0.00  0.00    +0.000 A 
ENDROOT
BRANCH   1   8
ATOM      7  F1  UNL     1       5.558   0.122  -0.313  0.00  0.00    +0.000 F 
ATOM      8  C1  UNL     1       4.870   0.748   0.742  0.00  0.00    +0.000 C 
ATOM      9  F2  UNL     1       5.130   2.088   0.713  0.00  0.00    +0.000 F 
ATOM     10  F3  UNL     1       5.416   0.220   1.937  0.00  0.00    +0.000 F 
ENDBRANCH   1   8
BRANCH   4  11
ATOM     11  N1  UNL     1      -0.750  -0.158   0.327  0.00  0.00    +0.000 N 
ATOM     12  C6  UNL     1      -1.401  -0.893  -0.652  0.00  0.00    +0.000 C 
ATOM     13  O1  UNL     1      -0.725  -1.491  -1.572  0.00  0.00    +0.000 OA
ATOM     14  H3  UNL     1      -1.338   0.302   1.073  0.00  0.00    +0.000 HD
BRANCH  12  15
ATOM     15  C7  UNL     1      -2.828  -1.044  -0.709  0.00  0.00    +0.000 A 
ATOM     16  C8  UNL     1      -3.802  -0.162  -0.277  0.00  0.00    +0.000 A 
ATOM     17  O2  UNL     1      -4.974  -0.796  -0.511  0.00  0.00    +0.000 OA
ATOM     18  N2  UNL     1      -4.756  -1.940  -1.027  0.00  0.00    +0.000 NA
ATOM     19  C9  UNL     1      -3.469  -2.200  -1.201  0.00  0.00    +0.000 A 
ATOM     20  C10 UNL     1      -3.676   1.178   0.299  0.00  0.00    +0.000 C 
ENDBRANCH  12  15
ENDBRANCH   4  11
TORSDOF 3
