REMARK  Name = ./3D_structures\o18_MMV009948_3D.pdb
REMARK  8 active torsions:
REMARK  status: ('A' for Active; 'I' for Inactive)
REMARK    1  A    between atoms: C1_2  and  C18_24
REMARK    2  A    between atoms: N1_3  and  C2_4
REMARK    3  A    between atoms: C4_6  and  N2_11
REMARK    4  A    between atoms: C5_7  and  C6_8
REMARK    5  A    between atoms: C10_14  and  C13_18
REMARK    6  A    between atoms: C21_27  and  C22_28
REMARK    7  A    between atoms: C22_28  and  N6_29
REMARK    8  A    between atoms: N7_32  and  C25_33
REMARK                            x       y       z     vdW  Elec       q    Type
REMARK                         _______ _______ _______ _____ _____    ______ ____
ROOT
ATOM      1  C2  UNL     1      -2.077   2.818   0.193  0.00  0.00    +0.000 A 
ATOM      2  C3  UNL     1      -3.340   2.320   0.570  0.00  0.00    +0.000 A 
ATOM      3  C4  UNL     1      -4.370   3.184   0.833  0.00  0.00    +0.000 A 
ATOM      4  C5  UNL     1      -4.178   4.567   0.730  0.00  0.00    +0.000 A 
ATOM      5  C6  UNL     1      -5.276   5.526   1.010  0.00  0.00    +0.000 C 
ATOM      6  C7  UNL     1      -2.938   5.013   0.361  0.00  0.00    +0.000 A 
ATOM      7  C8  UNL     1      -1.874   4.150   0.088  0.00  0.00    +0.000 A 
ENDROOT
BRANCH   3   8
ATOM      8  N2  UNL     1      -5.639   2.750   1.217  0.00  0.00    +0.000 N 
ATOM      9  C9  UNL     1      -6.126   1.424   1.361  0.00  0.00    +0.000 A 
ATOM     10  N3  UNL     1      -5.458   0.301   1.146  0.00  0.00    +0.000 NA
ATOM     11  C10 UNL     1      -5.904  -0.952   1.282  0.00  0.00    +0.000 A 
ATOM     12  C11 UNL     1      -7.225  -1.090   1.698  0.00  0.00    +0.000 A 
ATOM     13  C12 UNL     1      -7.971   0.054   1.937  0.00  0.00    +0.000 A 
ATOM     14  N4  UNL     1      -7.429   1.256   1.770  0.00  0.00    +0.000 NA
ATOM     15  H8  UNL     1      -6.362   3.508   1.440  0.00  0.00    +0.000 HD
BRANCH  11  16
ATOM     16  C13 UNL     1      -5.102  -2.142   1.016  0.00  0.00    +0.000 A 
ATOM     17  C14 UNL     1      -3.801  -2.027   0.579  0.00  0.00    +0.000 A 
ATOM     18  N5  UNL     1      -3.013  -3.114   0.318  0.00  0.00    +0.000 NA
ATOM     19  C15 UNL     1      -3.461  -4.366   0.471  0.00  0.00    +0.000 A 
ATOM     20  C16 UNL     1      -4.754  -4.533   0.904  0.00  0.00    +0.000 A 
ATOM     21  C17 UNL     1      -5.573  -3.425   1.176  0.00  0.00    +0.000 A 
ENDBRANCH  11  16
ENDBRANCH   3   8
BRANCH   1  24
ATOM     22  O1  UNL     1       0.753   3.362   0.063  0.00  0.00    +0.000 OA
ATOM     23  C1  UNL     1       0.309   2.181  -0.137  0.00  0.00    +0.000 C 
ATOM     24  N1  UNL     1      -1.067   1.887  -0.078  0.00  0.00    +0.000 N 
ATOM     25  H1  UNL     1      -1.349   0.876  -0.266  0.00  0.00    +0.000 HD
BRANCH  23  26
ATOM     26  C18 UNL     1       1.250   1.116  -0.433  0.00  0.00    +0.000 A 
ATOM     27  C19 UNL     1       2.518   1.425  -0.865  0.00  0.00    +0.000 A 
ATOM     28  C20 UNL     1       3.461   0.461  -1.149  0.00  0.00    +0.000 A 
ATOM     29  C21 UNL     1       3.137  -0.852  -1.000  0.00  0.00    +0.000 A 
ATOM     30  C28 UNL     1       1.881  -1.200  -0.572  0.00  0.00    +0.000 A 
ATOM     31  C29 UNL     1       0.929  -0.203  -0.286  0.00  0.00    +0.000 A 
BRANCH  29  32
ATOM     32  C22 UNL     1       4.123  -1.906  -1.287  0.00  0.00    +0.000 C 
BRANCH  32  33
ATOM     33  N6  UNL     1       5.428  -1.344  -1.325  0.00  0.00    +0.000 NA
ATOM     34  C23 UNL     1       5.890  -0.730  -0.128  0.00  0.00    +0.000 C 
ATOM     35  C24 UNL     1       6.743  -1.639   0.727  0.00  0.00    +0.000 C 
ATOM     36  N7  UNL     1       7.860  -2.152  -0.041  0.00  0.00    +0.000 NA
ATOM     37  C25 UNL     1       8.704  -1.067  -0.506  0.00  0.00    +0.000 C 
ATOM     38  C26 UNL     1       7.306  -2.928  -1.130  0.00  0.00    +0.000 C 
ATOM     39  C27 UNL     1       6.400  -2.140  -2.015  0.00  0.00    +0.000 C 
ENDBRANCH  32  33
ENDBRANCH  29  32
ENDBRANCH  23  26
ENDBRANCH   1  24
TORSDOF 6
