REMARK  Name = ./3D_structures\o19_MMV1174026_3D.pdb
REMARK  7 active torsions:
REMARK  status: ('A' for Active; 'I' for Inactive)
REMARK    1  A    between atoms: O1_1  and  C1_2
REMARK    2  A    between atoms: O1_1  and  C7_9
REMARK    3  A    between atoms: C4_5  and  N1_6
REMARK    4  A    between atoms: C10_12  and  C11_13
REMARK    5  A    between atoms: C11_13  and  C12_14
REMARK    6  A    between atoms: C11_13  and  C13_15
REMARK    7  A    between atoms: C11_13  and  C14_16
REMARK                            x       y       z     vdW  Elec       q    Type
REMARK                         _______ _______ _______ _____ _____    ______ ____
ROOT
ATOM      1  O1  UNL     1       1.672   0.905  -1.336  0.00  0.00    +0.000 OA
ENDROOT
BRANCH   1   2
ATOM      2  C1  UNL     1       2.892   0.580  -0.842  0.00  0.00    +0.000 A 
ATOM      3  C2  UNL     1       3.320  -0.735  -0.862  0.00  0.00    +0.000 A 
ATOM      4  C3  UNL     1       4.565  -1.039  -0.366  0.00  0.00    +0.000 A 
ATOM      5  C4  UNL     1       5.429  -0.096   0.162  0.00  0.00    +0.000 A 
ATOM      6  C5  UNL     1       4.950   1.215   0.163  0.00  0.00    +0.000 A 
ATOM      7  C6  UNL     1       3.718   1.578  -0.318  0.00  0.00    +0.000 A 
BRANCH   5   8
ATOM      8  N1  UNL     1       6.719  -0.423   0.666  0.00  0.00    +0.000 N 
ATOM      9  H3  UNL     1       7.506   0.227   0.611  0.00  0.00    +0.000 HD
ATOM     10  H4  UNL     1       6.844  -1.360   1.096  0.00  0.00    +0.000 HD
ENDBRANCH   5   8
ENDBRANCH   1   2
BRANCH   1  11
ATOM     11  C7  UNL     1       0.415   0.585  -0.872  0.00  0.00    +0.000 A 
ATOM     12  C8  UNL     1       0.149  -0.267   0.170  0.00  0.00    +0.000 A 
ATOM     13  C9  UNL     1      -1.151  -0.544   0.577  0.00  0.00    +0.000 A 
ATOM     14  C10 UNL     1      -2.241   0.046  -0.075  0.00  0.00    +0.000 A 
ATOM     15  C15 UNL     1      -1.974   0.897  -1.114  0.00  0.00    +0.000 A 
ATOM     16  C16 UNL     1      -0.685   1.171  -1.515  0.00  0.00    +0.000 A 
BRANCH  14  17
ATOM     17  C11 UNL     1      -3.638  -0.259   0.365  0.00  0.00    +0.000 C 
ATOM     18  C12 UNL     1      -4.457  -0.844  -0.770  0.00  0.00    +0.000 C 
ATOM     19  C13 UNL     1      -4.364   0.967   0.854  0.00  0.00    +0.000 C 
ATOM     20  C14 UNL     1      -3.641  -1.268   1.496  0.00  0.00    +0.000 C 
ENDBRANCH  14  17
ENDBRANCH   1  11
TORSDOF 4
