REMARK  Name = ./3D_structures\o1_MMV180402_3D.pdb
REMARK  1 active torsions:
REMARK  status: ('A' for Active; 'I' for Inactive)
REMARK    1  A    between atoms: N1_1  and  C1_2
REMARK                            x       y       z     vdW  Elec       q    Type
REMARK                         _______ _______ _______ _____ _____    ______ ____
ROOT
ATOM      1  C1  UNL     1      -1.482  -0.083   0.345  0.00  0.00    +0.000 C 
ATOM      2  C2  UNL     1      -0.499   0.815   1.059  0.00  0.00    +0.000 C 
ATOM      3  C3  UNL     1       0.477  -0.138   1.763  0.00  0.00    +0.000 C 
ATOM      4  C4  UNL     1       1.141  -0.995   0.735  0.00  0.00    +0.000 C 
ATOM      5  C5  UNL     1       1.968  -0.096  -0.159  0.00  0.00    +0.000 C 
ATOM      6  C6  UNL     1       1.039   0.826  -0.893  0.00  0.00    +0.000 C 
ATOM      7  C7  UNL     1       0.296   1.680   0.133  0.00  0.00    +0.000 C 
ATOM      8  C8  UNL     1      -0.017   0.096  -1.688  0.00  0.00    +0.000 C 
ATOM      9  C9  UNL     1      -0.808  -0.810  -0.789  0.00  0.00    +0.000 C 
ATOM     10  C10 UNL     1       0.199  -1.766  -0.131  0.00  0.00    +0.000 C 
ENDROOT
BRANCH   1  11
ATOM     11  N1  UNL     1      -2.691   0.574  -0.028  0.00  0.00    +0.000 NA
ATOM     12  H1  UNL     1      -3.377  -0.146  -0.329  0.00  0.00    +0.000 HD
ATOM     13  H2  UNL     1      -2.573   1.352  -0.684  0.00  0.00    +0.000 HD
ENDBRANCH   1  11
TORSDOF 1
