REMARK  Name = ./3D_structures\o20_MMV003820_3D.pdb
REMARK  11 active torsions:
REMARK  status: ('A' for Active; 'I' for Inactive)
REMARK    1  A    between atoms: O1_1  and  C1_2
REMARK    2  A    between atoms: C1_2  and  C2_3
REMARK    3  A    between atoms: C2_3  and  N1_4
REMARK    4  A    between atoms: C2_3  and  C18_25
REMARK    5  A    between atoms: C4_7  and  N6_17
REMARK    6  A    between atoms: N4_11  and  C8_14
REMARK    7  A    between atoms: C8_14  and  C9_15
REMARK    8  A    between atoms: C8_14  and  C10_16
REMARK    9  A    between atoms: N6_17  and  C11_18
REMARK   10  A    between atoms: C11_18  and  C12_19
REMARK   11  A    between atoms: C18_25  and  C19_26
REMARK                            x       y       z     vdW  Elec       q    Type
REMARK                         _______ _______ _______ _____ _____    ______ ____
ROOT
ATOM      1  N1  UNL     1      -0.654  -1.596   0.047  0.00  0.00    +0.000 N 
ATOM      2  C3  UNL     1      -0.162  -0.323  -0.314  0.00  0.00    +0.000 A 
ATOM      3  N2  UNL     1       1.071  -0.248  -0.864  0.00  0.00    +0.000 NA
ATOM      4  C4  UNL     1       1.639   0.909  -1.237  0.00  0.00    +0.000 A 
ATOM      5  C5  UNL     1       0.897   2.057  -1.034  0.00  0.00    +0.000 A 
ATOM      6  N3  UNL     1       1.179   3.325  -1.293  0.00  0.00    +0.000 NA
ATOM      7  C6  UNL     1       0.121   4.059  -0.907  0.00  0.00    +0.000 A 
ATOM      8  N4  UNL     1      -0.831   3.261  -0.404  0.00  0.00    +0.000 N 
ATOM      9  C7  UNL     1      -0.360   1.999  -0.476  0.00  0.00    +0.000 A 
ATOM     10  N5  UNL     1      -0.890   0.816  -0.116  0.00  0.00    +0.000 NA
ATOM     11  H5  UNL     1      -0.007  -2.425  -0.137  0.00  0.00    +0.000 HD
ENDROOT
BRANCH   8  12
ATOM     12  C8  UNL     1      -2.114   3.671   0.116  0.00  0.00    +0.000 C 
ATOM     13  C9  UNL     1      -3.217   3.513  -0.910  0.00  0.00    +0.000 C 
ATOM     14  C10 UNL     1      -2.465   2.957   1.408  0.00  0.00    +0.000 C 
ENDBRANCH   8  12
BRANCH   4  15
ATOM     15  N6  UNL     1       2.932   0.956  -1.810  0.00  0.00    +0.000 N 
ATOM     16  H14 UNL     1       3.316   1.910  -2.081  0.00  0.00    +0.000 HD
BRANCH  15  17
ATOM     17  C11 UNL     1       3.735  -0.205  -2.038  0.00  0.00    +0.000 C 
BRANCH  17  18
ATOM     18  C12 UNL     1       4.021  -0.921  -0.772  0.00  0.00    +0.000 A 
ATOM     19  C13 UNL     1       4.966  -0.386   0.077  0.00  0.00    +0.000 A 
ATOM     20  C14 UNL     1       5.274  -1.027   1.280  0.00  0.00    +0.000 A 
ATOM     21  C15 UNL     1       4.629  -2.193   1.611  0.00  0.00    +0.000 A 
ATOM     22  C16 UNL     1       3.683  -2.716   0.747  0.00  0.00    +0.000 A 
ATOM     23  C17 UNL     1       3.369  -2.091  -0.448  0.00  0.00    +0.000 A 
ENDBRANCH  17  18
ENDBRANCH  15  17
ENDBRANCH   4  15
BRANCH   1  24
ATOM     24  C2  UNL     1      -1.943  -1.859   0.636  0.00  0.00    +0.000 C 
BRANCH  24  25
ATOM     25  C18 UNL     1      -2.039  -3.325   1.007  0.00  0.00    +0.000 C 
ATOM     26  C19 UNL     1      -3.324  -3.529   1.754  0.00  0.00    +0.000 C 
ENDBRANCH  24  25
BRANCH  24  27
ATOM     27  C1  UNL     1      -3.117  -1.533  -0.218  0.00  0.00    +0.000 C 
BRANCH  27  28
ATOM     28  O1  UNL     1      -3.252  -0.232  -0.615  0.00  0.00    +0.000 OA
ATOM     29  H1  UNL     1      -3.079  -0.175  -1.592  0.00  0.00    +0.000 HD
ENDBRANCH  27  28
ENDBRANCH  24  27
ENDBRANCH   1  24
TORSDOF 8
