REMARK  Name = ./3D_structures\o21_MMV639951_3D.pdb
REMARK  22 active torsions:
REMARK  status: ('A' for Active; 'I' for Inactive)
REMARK    1  A    between atoms: C4_8  and  C5_9
REMARK    2  A    between atoms: C5_9  and  C6_10
REMARK    3  A    between atoms: C5_9  and  C16_23
REMARK    4  A    between atoms: C6_10  and  C7_11
REMARK    5  A    between atoms: C9_13  and  O4_14
REMARK    6  A    between atoms: O4_14  and  C10_15
REMARK    7  A    between atoms: C11_16  and  O5_17
REMARK    8  A    between atoms: O5_17  and  C12_18
REMARK    9  A    between atoms: C12_18  and  C13_19
REMARK   10  A    between atoms: C13_19  and  O6_20
REMARK   11  A    between atoms: C19_27  and  C49_64
REMARK   12  A    between atoms: C21_29  and  C48_63
REMARK   13  A    between atoms: C22_30  and  O8_31
REMARK   14  A    between atoms: C23_32  and  O9_33
REMARK   15  A    between atoms: O9_33  and  C24_34
REMARK   16  A    between atoms: C26_37  and  C27_38
REMARK   17  A    between atoms: C29_40  and  C47_62
REMARK   18  A    between atoms: C35_46  and  C46_61
REMARK   19  A    between atoms: C36_47  and  O14_59
REMARK   20  A    between atoms: C39_51  and  O13_54
REMARK   21  A    between atoms: C41_55  and  C44_58
REMARK   22  A    between atoms: O14_59  and  C45_60
REMARK                            x       y       z     vdW  Elec       q    Type
REMARK                         _______ _______ _______ _____ _____    ______ ____
ROOT
ATOM      1  O1  UNL     1      -1.483  -3.020  -3.052  0.00  0.00    +0.000 OA
ATOM      2  C1  UNL     1      -1.069  -3.407  -1.884  0.00  0.00    +0.000 C 
ATOM      3  N1  UNL     1       0.284  -3.832  -1.865  0.00  0.00    +0.000 N 
ATOM      4  C2  UNL     1       1.369  -3.324  -1.091  0.00  0.00    +0.000 C 
ATOM      5  C3  UNL     1       1.162  -1.959  -0.496  0.00  0.00    +0.000 C 
ATOM      6  O2  UNL     1      -0.012  -1.706  -0.171  0.00  0.00    +0.000 OA
ATOM      7  O3  UNL     1       2.186  -1.130  -0.350  0.00  0.00    +0.000 OA
ATOM      8  C4  UNL     1       2.710   0.081  -0.638  0.00  0.00    +0.000 C 
ATOM      9  C17 UNL     1       2.461   1.060   0.504  0.00  0.00    +0.000 C 
ATOM     10  C18 UNL     1       1.237   1.854   0.355  0.00  0.00    +0.000 C 
ATOM     11  O7  UNL     1       0.168   1.281   0.477  0.00  0.00    +0.000 OA
ATOM     12  C19 UNL     1       1.218   3.281   0.072  0.00  0.00    +0.000 C 
ATOM     13  C20 UNL     1      -0.085   3.920  -0.329  0.00  0.00    +0.000 C 
ATOM     14  C21 UNL     1      -1.312   4.013   0.047  0.00  0.00    +0.000 C 
ATOM     15  C22 UNL     1      -2.466   4.786  -0.630  0.00  0.00    +0.000 C 
ATOM     16  C23 UNL     1      -2.518   6.224  -0.191  0.00  0.00    +0.000 C 
ATOM     17  C25 UNL     1      -3.658   6.590   0.648  0.00  0.00    +0.000 C 
ATOM     18  O10 UNL     1      -3.428   7.387   1.575  0.00  0.00    +0.000 OA
ATOM     19  C26 UNL     1      -5.038   6.116   0.508  0.00  0.00    +0.000 C 
ATOM     20  C27 UNL     1      -5.939   6.716   1.573  0.00  0.00    +0.000 C 
ATOM     21  C28 UNL     1      -5.586   6.544  -0.818  0.00  0.00    +0.000 C 
ATOM     22  C29 UNL     1      -6.766   5.680  -1.280  0.00  0.00    +0.000 C 
ATOM     23  C30 UNL     1      -6.733   4.295  -0.731  0.00  0.00    +0.000 C 
ATOM     24  C31 UNL     1      -5.990   3.250  -0.896  0.00  0.00    +0.000 C 
ATOM     25  C32 UNL     1      -5.980   1.859  -0.324  0.00  0.00    +0.000 C 
ATOM     26  C33 UNL     1      -6.860   0.911  -0.166  0.00  0.00    +0.000 C 
ATOM     27  C34 UNL     1      -6.790  -0.482   0.424  0.00  0.00    +0.000 C 
ATOM     28  C35 UNL     1      -6.388  -1.058   1.512  0.00  0.00    +0.000 C 
ATOM     29  C36 UNL     1      -6.406  -2.527   1.918  0.00  0.00    +0.000 C 
ATOM     30  C37 UNL     1      -4.943  -2.924   2.262  0.00  0.00    +0.000 C 
ATOM     31  C38 UNL     1      -4.369  -3.820   1.150  0.00  0.00    +0.000 C 
ATOM     32  O11 UNL     1      -2.997  -3.714   1.300  0.00  0.00    +0.000 OA
ATOM     33  C39 UNL     1      -2.235  -4.250   0.302  0.00  0.00    +0.000 C 
ATOM     34  C40 UNL     1      -2.049  -3.335  -0.836  0.00  0.00    +0.000 C 
ATOM     35  O12 UNL     1      -2.879  -2.351  -0.888  0.00  0.00    +0.000 OA
ATOM     36  C41 UNL     1      -2.727  -5.613  -0.084  0.00  0.00    +0.000 C 
ATOM     37  C42 UNL     1      -3.546  -6.159   1.067  0.00  0.00    +0.000 C 
ATOM     38  C43 UNL     1      -4.754  -5.250   1.336  0.00  0.00    +0.000 C 
ATOM     39  C44 UNL     1      -3.519  -5.668  -1.337  0.00  0.00    +0.000 C 
ATOM     40  C46 UNL     1      -5.761  -0.469   2.798  0.00  0.00    +0.000 C 
ATOM     41  C47 UNL     1      -6.949   5.879  -2.733  0.00  0.00    +0.000 C 
ATOM     42  C48 UNL     1      -2.047   3.451   1.274  0.00  0.00    +0.000 C 
ATOM     43  C49 UNL     1       1.774   4.052   1.247  0.00  0.00    +0.000 C 
ATOM     44  C50 UNL     1       2.717  -3.341  -1.771  0.00  0.00    +0.000 C 
ATOM     45  C51 UNL     1       3.010  -4.707  -2.326  0.00  0.00    +0.000 C 
ATOM     46  C52 UNL     1       1.944  -4.906  -3.396  0.00  0.00    +0.000 C 
ATOM     47  C53 UNL     1       0.605  -4.960  -2.762  0.00  0.00    +0.000 C 
ENDROOT
BRANCH   8  48
ATOM     48  C5  UNL     1       4.272   0.037  -0.756  0.00  0.00    +0.000 C 
ATOM     49  C16 UNL     1       4.675  -0.562  -2.046  0.00  0.00    +0.000 C 
BRANCH  48  50
ATOM     50  C6  UNL     1       4.857  -0.447   0.495  0.00  0.00    +0.000 C 
BRANCH  50  51
ATOM     51  C7  UNL     1       6.344  -0.577   0.625  0.00  0.00    +0.000 C 
ATOM     52  C8  UNL     1       7.026  -1.512  -0.276  0.00  0.00    +0.000 C 
ATOM     53  C9  UNL     1       8.338  -2.088   0.176  0.00  0.00    +0.000 C 
ATOM     54  C11 UNL     1       8.877  -1.274   1.316  0.00  0.00    +0.000 C 
ATOM     55  C14 UNL     1       7.852  -1.498   2.441  0.00  0.00    +0.000 C 
ATOM     56  C15 UNL     1       6.672  -0.676   2.093  0.00  0.00    +0.000 C 
BRANCH  53  57
ATOM     57  O4  UNL     1       9.244  -2.026  -0.876  0.00  0.00    +0.000 OA
ATOM     58  C10 UNL     1       9.708  -3.306  -1.162  0.00  0.00    +0.000 C 
ENDBRANCH  53  57
BRANCH  54  59
ATOM     59  O5  UNL     1      10.136  -1.668   1.716  0.00  0.00    +0.000 OA
BRANCH  59  60
ATOM     60  C12 UNL     1      10.993  -0.583   1.673  0.00  0.00    +0.000 C 
BRANCH  60  61
ATOM     61  C13 UNL     1      11.178   0.033   0.327  0.00  0.00    +0.000 C 
BRANCH  61  62
ATOM     62  O6  UNL     1      12.083   1.110   0.509  0.00  0.00    +0.000 OA
ATOM     63  H18 UNL     1      12.938   0.778   0.888  0.00  0.00    +0.000 HD
ENDBRANCH  61  62
ENDBRANCH  60  61
ENDBRANCH  59  60
ENDBRANCH  54  59
ENDBRANCH  50  51
ENDBRANCH  48  50
ENDBRANCH   8  48
BRANCH  15  64
ATOM     64  O8  UNL     1      -2.674   4.671  -1.950  0.00  0.00    +0.000 OA
ATOM     65  H31 UNL     1      -2.219   5.436  -2.423  0.00  0.00    +0.000 HD
ENDBRANCH  15  64
BRANCH  16  66
ATOM     66  O9  UNL     1      -2.412   7.082  -1.307  0.00  0.00    +0.000 OA
ATOM     67  C24 UNL     1      -1.240   7.795  -1.328  0.00  0.00    +0.000 C 
ENDBRANCH  16  66
BRANCH  33  68
ATOM     68  O13 UNL     1      -0.959  -4.453   0.868  0.00  0.00    +0.000 OA
ATOM     69  H52 UNL     1      -0.948  -5.155   1.538  0.00  0.00    +0.000 HD
ENDBRANCH  33  68
BRANCH  29  70
ATOM     70  O14 UNL     1      -6.881  -3.528   1.221  0.00  0.00    +0.000 OA
ATOM     71  C45 UNL     1      -7.819  -4.347   1.852  0.00  0.00    +0.000 C 
ENDBRANCH  29  70
TORSDOF 12
