REMARK  Name = ./3D_structures\o22_MMV1580491_3D.pdb
REMARK  20 active torsions:
REMARK  status: ('A' for Active; 'I' for Inactive)
REMARK    1  A    between atoms: C4_5  and  C5_6
REMARK    2  A    between atoms: C5_6  and  C6_7
REMARK    3  A    between atoms: C6_7  and  C7_8
REMARK    4  A    between atoms: C6_7  and  C19_26
REMARK    5  A    between atoms: N1_10  and  C8_11
REMARK    6  A    between atoms: C8_11  and  C9_12
REMARK    7  A    between atoms: C8_11  and  C14_19
REMARK    8  A    between atoms: C10_13  and  C11_14
REMARK    9  A    between atoms: C11_14  and  O3_16
REMARK   10  A    between atoms: O3_16  and  C12_17
REMARK   11  A    between atoms: C12_17  and  C13_18
REMARK   12  A    between atoms: C14_19  and  C15_20
REMARK   13  A    between atoms: C19_26  and  C20_27
REMARK   14  A    between atoms: C20_27  and  C21_29
REMARK   15  A    between atoms: C21_29  and  N3_30
REMARK   16  A    between atoms: C21_29  and  C27_39
REMARK   17  A    between atoms: C22_31  and  C23_33
REMARK   18  A    between atoms: C24_36  and  C26_38
REMARK   19  A    between atoms: C27_39  and  C28_40
REMARK   20  A    between atoms: C27_39  and  C29_41
REMARK                            x       y       z     vdW  Elec       q    Type
REMARK                         _______ _______ _______ _____ _____    ______ ____
ROOT
ATOM      1  C6  UNL     1      -0.026  -0.842  -0.881  0.00  0.00    +0.000 C 
ENDROOT
BRANCH   1   2
ATOM      2  C7  UNL     1      -1.544  -0.956  -0.766  0.00  0.00    +0.000 C 
ATOM      3  O1  UNL     1      -2.106  -1.898  -1.365  0.00  0.00    +0.000 OA
ATOM      4  N1  UNL     1      -2.315  -0.068  -0.033  0.00  0.00    +0.000 N 
ATOM      5  H6  UNL     1      -1.882   0.709   0.454  0.00  0.00    +0.000 HD
BRANCH   4   6
ATOM      6  C8  UNL     1      -3.750  -0.240   0.041  0.00  0.00    +0.000 C 
BRANCH   6   7
ATOM      7  C9  UNL     1      -4.380   1.036  -0.391  0.00  0.00    +0.000 C 
ATOM      8  C10 UNL     1      -5.412   1.087  -1.207  0.00  0.00    +0.000 C 
BRANCH   8   9
ATOM      9  C11 UNL     1      -6.017   2.366  -1.616  0.00  0.00    +0.000 C 
ATOM     10  O2  UNL     1      -5.570   3.463  -1.200  0.00  0.00    +0.000 OA
BRANCH   9  11
ATOM     11  O3  UNL     1      -7.102   2.372  -2.478  0.00  0.00    +0.000 OA
BRANCH  11  12
ATOM     12  C12 UNL     1      -7.752   3.539  -2.926  0.00  0.00    +0.000 C 
ATOM     13  C13 UNL     1      -8.272   4.236  -1.668  0.00  0.00    +0.000 C 
ENDBRANCH  11  12
ENDBRANCH   9  11
ENDBRANCH   8   9
ENDBRANCH   6   7
BRANCH   6  14
ATOM     14  C14 UNL     1      -4.173  -0.450   1.482  0.00  0.00    +0.000 C 
BRANCH  14  15
ATOM     15  C15 UNL     1      -3.523  -1.669   2.085  0.00  0.00    +0.000 C 
ATOM     16  C16 UNL     1      -3.999  -1.788   3.489  0.00  0.00    +0.000 C 
ATOM     17  O4  UNL     1      -4.022  -0.889   4.352  0.00  0.00    +0.000 OA
ATOM     18  N2  UNL     1      -4.441  -3.137   3.704  0.00  0.00    +0.000 N 
ATOM     19  C17 UNL     1      -3.893  -3.909   2.627  0.00  0.00    +0.000 C 
ATOM     20  C18 UNL     1      -3.916  -2.956   1.422  0.00  0.00    +0.000 C 
ATOM     21  H18 UNL     1      -5.037  -3.466   4.489  0.00  0.00    +0.000 HD
ENDBRANCH  14  15
ENDBRANCH   6  14
ENDBRANCH   4   6
ENDBRANCH   1   2
BRANCH   1  22
ATOM     22  C5  UNL     1       0.390  -1.867  -1.806  0.00  0.00    +0.000 C 
BRANCH  22  27
ATOM     23  F1  UNL     1       5.556  -3.388  -3.361  0.00  0.00    +0.000 F 
ATOM     24  C1  UNL     1       4.311  -2.992  -2.993  0.00  0.00    +0.000 A 
ATOM     25  C2  UNL     1       3.667  -1.925  -3.598  0.00  0.00    +0.000 A 
ATOM     26  C3  UNL     1       2.419  -1.519  -3.236  0.00  0.00    +0.000 A 
ATOM     27  C4  UNL     1       1.721  -2.156  -2.236  0.00  0.00    +0.000 A 
ATOM     28  C30 UNL     1       2.389  -3.229  -1.640  0.00  0.00    +0.000 A 
ATOM     29  C31 UNL     1       3.633  -3.641  -1.994  0.00  0.00    +0.000 A 
ENDBRANCH  22  27
ENDBRANCH   1  22
BRANCH   1  30
ATOM     30  C19 UNL     1       0.492  -0.751   0.504  0.00  0.00    +0.000 C 
BRANCH  30  31
ATOM     31  C20 UNL     1       1.919  -0.518   0.740  0.00  0.00    +0.000 C 
ATOM     32  O5  UNL     1       2.750  -1.402   0.767  0.00  0.00    +0.000 OA
BRANCH  31  33
ATOM     33  C21 UNL     1       2.467   0.847   0.975  0.00  0.00    +0.000 C 
BRANCH  33  34
ATOM     34  N3  UNL     1       3.876   0.880   1.215  0.00  0.00    +0.000 N 
ATOM     35  C22 UNL     1       4.492   1.296   2.410  0.00  0.00    +0.000 C 
ATOM     36  O6  UNL     1       3.732   1.670   3.346  0.00  0.00    +0.000 OA
ATOM     37  H26 UNL     1       4.492   0.569   0.433  0.00  0.00    +0.000 HD
BRANCH  35  38
ATOM     38  C23 UNL     1       5.943   1.294   2.557  0.00  0.00    +0.000 A 
ATOM     39  N4  UNL     1       6.693   1.650   3.617  0.00  0.00    +0.000 NA
ATOM     40  O7  UNL     1       7.959   1.502   3.340  0.00  0.00    +0.000 OA
ATOM     41  C24 UNL     1       8.135   1.059   2.133  0.00  0.00    +0.000 A 
ATOM     42  C25 UNL     1       6.869   0.912   1.600  0.00  0.00    +0.000 A 
ATOM     43  C26 UNL     1       9.432   0.772   1.473  0.00  0.00    +0.000 C 
ENDBRANCH  35  38
ENDBRANCH  33  34
BRANCH  33  44
ATOM     44  C27 UNL     1       2.165   1.818  -0.131  0.00  0.00    +0.000 C 
ATOM     45  C28 UNL     1       2.773   1.299  -1.395  0.00  0.00    +0.000 C 
ATOM     46  C29 UNL     1       2.926   3.103   0.245  0.00  0.00    +0.000 C 
ENDBRANCH  33  44
ENDBRANCH  31  33
ENDBRANCH  30  31
ENDBRANCH   1  30
TORSDOF 16
