REMARK  Name = ./3D_structures\o23_MMV1580492_3D.pdb
REMARK  11 active torsions:
REMARK  status: ('A' for Active; 'I' for Inactive)
REMARK    1  A    between atoms: C1_3  and  C2_4
REMARK    2  A    between atoms: C8_10  and  N2_11
REMARK    3  A    between atoms: N2_11  and  C9_12
REMARK    4  A    between atoms: C9_12  and  C10_13
REMARK    5  A    between atoms: C10_13  and  O2_14
REMARK    6  A    between atoms: C13_18  and  C14_19
REMARK    7  A    between atoms: C16_21  and  C23_29
REMARK    8  A    between atoms: C17_22  and  O3_23
REMARK    9  A    between atoms: O3_23  and  C18_24
REMARK   10  A    between atoms: C18_24  and  C19_25
REMARK   11  A    between atoms: C18_24  and  C20_26
REMARK                            x       y       z     vdW  Elec       q    Type
REMARK                         _______ _______ _______ _____ _____    ______ ____
ROOT
ATOM      1  O1  UNL     1      -0.263   0.916   1.373  0.00  0.00    +0.000 OA
ATOM      2  N1  UNL     1       0.918   0.424   1.293  0.00  0.00    +0.000 NA
ATOM      3  C1  UNL     1       0.921  -0.569   0.412  0.00  0.00    +0.000 A 
ATOM      4  N3  UNL     1      -0.338  -0.664  -0.054  0.00  0.00    +0.000 NA
ATOM      5  C13 UNL     1      -1.084   0.270   0.549  0.00  0.00    +0.000 A 
ENDROOT
BRANCH   3   6
ATOM      6  C2  UNL     1       2.085  -1.372   0.045  0.00  0.00    +0.000 A 
ATOM      7  C3  UNL     1       3.302  -1.115   0.639  0.00  0.00    +0.000 A 
ATOM      8  C4  UNL     1       4.386  -1.890   0.264  0.00  0.00    +0.000 A 
ATOM      9  C5  UNL     1       4.234  -2.886  -0.676  0.00  0.00    +0.000 A 
ATOM     10  C6  UNL     1       3.026  -3.159  -1.282  0.00  0.00    +0.000 A 
ATOM     11  C7  UNL     1       1.948  -2.389  -0.910  0.00  0.00    +0.000 A 
ATOM     12  C8  UNL     1       5.560  -1.420   1.027  0.00  0.00    +0.000 C 
ATOM     13  C11 UNL     1       4.903  -0.895   2.304  0.00  0.00    +0.000 C 
ATOM     14  C12 UNL     1       3.735  -0.122   1.669  0.00  0.00    +0.000 C 
BRANCH  12  15
ATOM     15  N2  UNL     1       6.093  -0.245   0.364  0.00  0.00    +0.000 NA
ATOM     16  H5  UNL     1       6.748   0.305   0.963  0.00  0.00    +0.000 HD
BRANCH  15  17
ATOM     17  C9  UNL     1       6.600  -0.490  -0.955  0.00  0.00    +0.000 C 
BRANCH  17  18
ATOM     18  C10 UNL     1       7.113   0.846  -1.475  0.00  0.00    +0.000 C 
BRANCH  18  19
ATOM     19  O2  UNL     1       8.121   1.351  -0.666  0.00  0.00    +0.000 OA
ATOM     20  H10 UNL     1       8.146   2.335  -0.839  0.00  0.00    +0.000 HD
ENDBRANCH  18  19
ENDBRANCH  17  18
ENDBRANCH  15  17
ENDBRANCH  12  15
ENDBRANCH   3   6
BRANCH   5  21
ATOM     21  C14 UNL     1      -2.495   0.595   0.410  0.00  0.00    +0.000 A 
ATOM     22  C15 UNL     1      -3.291  -0.115  -0.453  0.00  0.00    +0.000 A 
ATOM     23  C16 UNL     1      -4.618   0.157  -0.621  0.00  0.00    +0.000 A 
ATOM     24  C17 UNL     1      -5.234   1.167   0.073  0.00  0.00    +0.000 A 
ATOM     25  C21 UNL     1      -4.401   1.891   0.959  0.00  0.00    +0.000 A 
ATOM     26  C22 UNL     1      -3.080   1.618   1.124  0.00  0.00    +0.000 A 
BRANCH  23  27
ATOM     27  C23 UNL     1      -5.308  -0.688  -1.572  0.00  0.00    +0.000 C 
ATOM     28  N4  UNL     1      -5.840  -1.356  -2.338  0.00  0.00    +0.000 NA
ENDBRANCH  23  27
BRANCH  24  29
ATOM     29  O3  UNL     1      -6.520   1.475  -0.050  0.00  0.00    +0.000 OA
BRANCH  29  30
ATOM     30  C18 UNL     1      -7.652   1.157  -0.673  0.00  0.00    +0.000 C 
ATOM     31  C19 UNL     1      -8.769   0.857   0.338  0.00  0.00    +0.000 C 
ATOM     32  C20 UNL     1      -8.219   2.355  -1.489  0.00  0.00    +0.000 C 
ENDBRANCH  29  30
ENDBRANCH  24  29
ENDBRANCH   5  21
TORSDOF 9
