REMARK  Name = ./3D_structures\o24_MMV690621_3D.pdb
REMARK  2 active torsions:
REMARK  status: ('A' for Active; 'I' for Inactive)
REMARK    1  A    between atoms: C10_12  and  N2_13
REMARK    2  A    between atoms: C11_14  and  C12_16
REMARK                            x       y       z     vdW  Elec       q    Type
REMARK                         _______ _______ _______ _____ _____    ______ ____
ROOT
ATOM      1 CL1  UNL     1      -6.916   1.671  -0.964  0.00  0.00    +0.000 Cl
ATOM      2  C1  UNL     1      -5.176   1.507  -0.832  0.00  0.00    +0.000 A 
ATOM      3  C2  UNL     1      -4.555   0.362  -0.409  0.00  0.00    +0.000 A 
ATOM      4  C3  UNL     1      -3.170   0.252  -0.311  0.00  0.00    +0.000 A 
ATOM      5  C4  UNL     1      -2.403   1.345  -0.655  0.00  0.00    +0.000 A 
ATOM      6  N1  UNL     1      -1.107   1.034  -0.491  0.00  0.00    +0.000 N 
ATOM      7  C5  UNL     1      -1.005  -0.212  -0.056  0.00  0.00    +0.000 A 
ATOM      8  C6  UNL     1      -2.280  -0.714   0.062  0.00  0.00    +0.000 A 
ATOM      9  C7  UNL     1      -2.566  -2.095   0.527  0.00  0.00    +0.000 C 
ATOM     10  C8  UNL     1      -1.459  -2.734   1.277  0.00  0.00    +0.000 C 
ATOM     11  C9  UNL     1      -0.305  -1.819   1.595  0.00  0.00    +0.000 C 
ATOM     12  C10 UNL     1       0.105  -1.141   0.314  0.00  0.00    +0.000 C 
ATOM     13  C17 UNL     1      -3.021   2.515  -1.086  0.00  0.00    +0.000 A 
ATOM     14  C18 UNL     1      -4.411   2.599  -1.176  0.00  0.00    +0.000 A 
ATOM     15  H2  UNL     1      -0.290   1.659  -0.671  0.00  0.00    +0.000 HD
ENDROOT
BRANCH  12  16
ATOM     16  N2  UNL     1       1.361  -0.466   0.400  0.00  0.00    +0.000 N 
ATOM     17  C11 UNL     1       2.501  -0.758  -0.396  0.00  0.00    +0.000 C 
ATOM     18  O1  UNL     1       2.352  -1.695  -1.233  0.00  0.00    +0.000 OA
ATOM     19  H10 UNL     1       1.449   0.299   1.099  0.00  0.00    +0.000 HD
BRANCH  17  20
ATOM     20  C12 UNL     1       3.767  -0.049  -0.283  0.00  0.00    +0.000 A 
ATOM     21  N3  UNL     1       4.803  -0.382  -1.071  0.00  0.00    +0.000 NA
ATOM     22  C13 UNL     1       5.992   0.233  -1.013  0.00  0.00    +0.000 A 
ATOM     23  C14 UNL     1       6.194   1.249  -0.124  0.00  0.00    +0.000 A 
ATOM     24  C15 UNL     1       5.188   1.637   0.705  0.00  0.00    +0.000 A 
ATOM     25  C16 UNL     1       3.961   0.971   0.614  0.00  0.00    +0.000 A 
ENDBRANCH  17  20
ENDBRANCH  12  16
TORSDOF 2
