REMARK  Name = ./3D_structures\o25_MMV1782112_3D.pdb
REMARK  15 active torsions:
REMARK  status: ('A' for Active; 'I' for Inactive)
REMARK    1  A    between atoms: N1_3  and  C11_17
REMARK    2  A    between atoms: C5_7  and  N2_8
REMARK    3  A    between atoms: C6_9  and  C7_11
REMARK    4  A    between atoms: C8_14  and  C10_16
REMARK    5  A    between atoms: C11_17  and  C12_18
REMARK    6  A    between atoms: C11_17  and  C24_36
REMARK    7  A    between atoms: N4_20  and  C13_21
REMARK    8  A    between atoms: C13_21  and  C14_22
REMARK    9  A    between atoms: C13_21  and  C19_29
REMARK   10  A    between atoms: C15_23  and  C16_24
REMARK   11  A    between atoms: C16_24  and  O6_26
REMARK   12  A    between atoms: O6_26  and  C17_27
REMARK   13  A    between atoms: C17_27  and  C18_28
REMARK   14  A    between atoms: C19_29  and  C20_30
REMARK   15  A    between atoms: C24_36  and  C25_37
REMARK                            x       y       z     vdW  Elec       q    Type
REMARK                         _______ _______ _______ _____ _____    ______ ____
ROOT
ATOM      1  C11 UNL     1       1.060  -1.165  -0.889  0.00  0.00    +0.000 C 
ENDROOT
BRANCH   1   4
ATOM      2  O1  UNL     1       3.510  -0.157  -0.871  0.00  0.00    +0.000 OA
ATOM      3  C1  UNL     1       3.096  -0.509   0.255  0.00  0.00    +0.000 A 
ATOM      4  N1  UNL     1       1.859  -1.027   0.275  0.00  0.00    +0.000 N 
ATOM      5  C2  UNL     1       1.385  -1.418   1.471  0.00  0.00    +0.000 A 
ATOM      6  C3  UNL     1       2.147  -1.289   2.630  0.00  0.00    +0.000 A 
ATOM      7  C4  UNL     1       3.437  -0.744   2.589  0.00  0.00    +0.000 A 
ATOM      8  C5  UNL     1       3.919  -0.347   1.371  0.00  0.00    +0.000 A 
BRANCH   8   9
ATOM      9  N2  UNL     1       5.207   0.235   1.199  0.00  0.00    +0.000 N 
ATOM     10  C6  UNL     1       6.120   0.544   2.200  0.00  0.00    +0.000 C 
ATOM     11  O2  UNL     1       5.868   0.316   3.389  0.00  0.00    +0.000 OA
ATOM     12  H4  UNL     1       5.492   0.441   0.194  0.00  0.00    +0.000 HD
BRANCH  10  13
ATOM     13  C7  UNL     1       7.425   1.166   1.881  0.00  0.00    +0.000 A 
ATOM     14  N3  UNL     1       8.334   1.645   2.745  0.00  0.00    +0.000 NA
ATOM     15  O3  UNL     1       9.319   2.117   2.075  0.00  0.00    +0.000 OA
ATOM     16  C8  UNL     1       9.157   1.993   0.785  0.00  0.00    +0.000 A 
ATOM     17  C9  UNL     1       7.946   1.382   0.617  0.00  0.00    +0.000 A 
ATOM     18  C10 UNL     1      10.154   2.461  -0.208  0.00  0.00    +0.000 C 
ENDBRANCH  10  13
ENDBRANCH   8   9
ENDBRANCH   1   4
BRANCH   1  19
ATOM     19  C12 UNL     1      -0.389  -0.925  -0.533  0.00  0.00    +0.000 C 
ATOM     20  O4  UNL     1      -1.034  -1.895  -0.038  0.00  0.00    +0.000 OA
ATOM     21  N4  UNL     1      -0.967   0.318  -0.742  0.00  0.00    +0.000 N 
ATOM     22  H10 UNL     1      -0.310   1.072  -1.189  0.00  0.00    +0.000 HD
BRANCH  21  23
ATOM     23  C13 UNL     1      -2.301   0.684  -0.408  0.00  0.00    +0.000 C 
BRANCH  23  24
ATOM     24  C14 UNL     1      -3.301  -0.330  -0.912  0.00  0.00    +0.000 C 
ATOM     25  C15 UNL     1      -3.744  -1.236  -0.075  0.00  0.00    +0.000 C 
BRANCH  25  26
ATOM     26  C16 UNL     1      -4.687  -2.289  -0.313  0.00  0.00    +0.000 C 
ATOM     27  O5  UNL     1      -4.933  -3.090   0.681  0.00  0.00    +0.000 OA
BRANCH  26  28
ATOM     28  O6  UNL     1      -5.381  -2.581  -1.457  0.00  0.00    +0.000 OA
BRANCH  28  29
ATOM     29  C17 UNL     1      -6.289  -3.668  -1.562  0.00  0.00    +0.000 C 
ATOM     30  C18 UNL     1      -7.399  -3.508  -0.550  0.00  0.00    +0.000 C 
ENDBRANCH  28  29
ENDBRANCH  26  28
ENDBRANCH  25  26
ENDBRANCH  23  24
BRANCH  23  31
ATOM     31  C19 UNL     1      -2.719   1.969  -1.084  0.00  0.00    +0.000 C 
BRANCH  31  32
ATOM     32  C20 UNL     1      -4.107   2.409  -0.777  0.00  0.00    +0.000 C 
ATOM     33  C21 UNL     1      -4.339   2.690   0.664  0.00  0.00    +0.000 C 
ATOM     34  O7  UNL     1      -4.422   1.898   1.631  0.00  0.00    +0.000 OA
ATOM     35  N5  UNL     1      -4.451   4.115   0.752  0.00  0.00    +0.000 N 
ATOM     36  C22 UNL     1      -5.030   4.632  -0.498  0.00  0.00    +0.000 C 
ATOM     37  C23 UNL     1      -4.412   3.689  -1.516  0.00  0.00    +0.000 C 
ATOM     38  H22 UNL     1      -4.173   4.738   1.534  0.00  0.00    +0.000 HD
ENDBRANCH  31  32
ENDBRANCH  23  31
ENDBRANCH  21  23
ENDBRANCH   1  19
BRANCH   1  39
ATOM     39  C24 UNL     1       1.158  -2.390  -1.692  0.00  0.00    +0.000 C 
ATOM     40  C25 UNL     1       0.818  -3.685  -1.025  0.00  0.00    +0.000 C 
ENDBRANCH   1  39
TORSDOF 12
