REMARK  Name = ./3D_structures\o26_MMV1782107_3D.pdb
REMARK  6 active torsions:
REMARK  status: ('A' for Active; 'I' for Inactive)
REMARK    1  A    between atoms: N1_3  and  C11_16
REMARK    2  A    between atoms: C3_5  and  N2_6
REMARK    3  A    between atoms: N2_6  and  C4_7
REMARK    4  A    between atoms: C11_16  and  C12_17
REMARK    5  A    between atoms: C14_19  and  O3_23
REMARK    6  A    between atoms: O3_23  and  C18_24
REMARK                            x       y       z     vdW  Elec       q    Type
REMARK                         _______ _______ _______ _____ _____    ______ ____
ROOT
ATOM      1  O1  UNL     1       0.529   2.716  -1.704  0.00  0.00    +0.000 OA
ATOM      2  C1  UNL     1      -0.642   2.337  -1.449  0.00  0.00    +0.000 A 
ATOM      3  N1  UNL     1      -0.941   1.038  -1.351  0.00  0.00    +0.000 N 
ATOM      4  C2  UNL     1      -2.245   0.736  -1.071  0.00  0.00    +0.000 A 
ATOM      5  C3  UNL     1      -3.211   1.697  -0.895  0.00  0.00    +0.000 A 
ATOM      6  C10 UNL     1      -2.820   3.039  -1.014  0.00  0.00    +0.000 A 
ATOM      7  N3  UNL     1      -1.541   3.329  -1.289  0.00  0.00    +0.000 N 
ATOM      8  O2  UNL     1      -3.650   3.975  -0.867  0.00  0.00    +0.000 OA
ATOM      9  H8  UNL     1      -1.264   4.346  -1.375  0.00  0.00    +0.000 HD
ENDROOT
BRANCH   5  10
ATOM     10  N2  UNL     1      -4.569   1.424  -0.642  0.00  0.00    +0.000 N 
ATOM     11  H2  UNL     1      -5.279   2.214  -0.703  0.00  0.00    +0.000 HD
BRANCH  10  12
ATOM     12  C4  UNL     1      -5.064   0.159  -0.310  0.00  0.00    +0.000 A 
ATOM     13  C5  UNL     1      -6.290  -0.237  -0.848  0.00  0.00    +0.000 A 
ATOM     14  C6  UNL     1      -6.821  -1.461  -0.507  0.00  0.00    +0.000 A 
ATOM     15  C7  UNL     1      -6.152  -2.309   0.368  0.00  0.00    +0.000 A 
ATOM     16  C8  UNL     1      -4.949  -1.896   0.884  0.00  0.00    +0.000 A 
ATOM     17  C9  UNL     1      -4.403  -0.672   0.553  0.00  0.00    +0.000 A 
ENDBRANCH  10  12
ENDBRANCH   5  10
BRANCH   3  18
ATOM     18  C11 UNL     1       0.056   0.041  -1.528  0.00  0.00    +0.000 C 
BRANCH  18  19
ATOM     19  C12 UNL     1       0.769  -0.394  -0.330  0.00  0.00    +0.000 A 
ATOM     20  C13 UNL     1       1.950   0.243  -0.005  0.00  0.00    +0.000 A 
ATOM     21  C14 UNL     1       2.700  -0.102   1.123  0.00  0.00    +0.000 A 
ATOM     22  C15 UNL     1       2.245  -1.114   1.942  0.00  0.00    +0.000 A 
ATOM     23  C16 UNL     1       1.054  -1.752   1.609  0.00  0.00    +0.000 A 
ATOM     24  C17 UNL     1       0.323  -1.410   0.502  0.00  0.00    +0.000 A 
BRANCH  21  25
ATOM     25  O3  UNL     1       3.887   0.569   1.411  0.00  0.00    +0.000 OA
BRANCH  25  26
ATOM     26  C18 UNL     1       5.109   0.158   0.940  0.00  0.00    +0.000 A 
ATOM     27  C19 UNL     1       5.918  -0.728   1.632  0.00  0.00    +0.000 A 
ATOM     28  C20 UNL     1       7.133  -1.112   1.122  0.00  0.00    +0.000 A 
ATOM     29  C21 UNL     1       7.606  -0.644  -0.087  0.00  0.00    +0.000 A 
ATOM     30  C22 UNL     1       6.800   0.239  -0.777  0.00  0.00    +0.000 A 
ATOM     31  C23 UNL     1       5.567   0.631  -0.263  0.00  0.00    +0.000 A 
ENDBRANCH  25  26
ENDBRANCH  21  25
ENDBRANCH  18  19
ENDBRANCH   3  18
TORSDOF 6
