REMARK  Name = ./3D_structures\o27_MMV1782106_3D.pdb
REMARK  8 active torsions:
REMARK  status: ('A' for Active; 'I' for Inactive)
REMARK    1  A    between atoms: C2_4  and  C17_22
REMARK    2  A    between atoms: C3_5  and  C4_6
REMARK    3  A    between atoms: C4_6  and  C5_7
REMARK    4  A    between atoms: C7_9  and  C8_10
REMARK    5  A    between atoms: C8_10  and  C9_11
REMARK    6  A    between atoms: C9_11  and  C10_12
REMARK    7  A    between atoms: N2_14  and  C11_15
REMARK    8  A    between atoms: C12_16  and  O3_17
REMARK                            x       y       z     vdW  Elec       q    Type
REMARK                         _______ _______ _______ _____ _____    ______ ____
ROOT
ATOM      1  C9  UNL     1       0.634   0.532   2.183  0.00  0.00    +0.000 C 
ENDROOT
BRANCH   1   2
ATOM      2  C10 UNL     1       1.603   0.754   1.117  0.00  0.00    +0.000 C 
ATOM      3  O2  UNL     1       1.543   1.660   0.270  0.00  0.00    +0.000 OA
ATOM      4  N2  UNL     1       2.713  -0.170   1.063  0.00  0.00    +0.000 N 
ATOM      5  H12 UNL     1       2.680  -0.915   1.832  0.00  0.00    +0.000 HD
BRANCH   4   6
ATOM      6  C11 UNL     1       3.757  -0.152   0.132  0.00  0.00    +0.000 A 
ATOM      7  C12 UNL     1       4.735  -1.156   0.226  0.00  0.00    +0.000 A 
ATOM      8  C13 UNL     1       5.779  -1.177  -0.661  0.00  0.00    +0.000 A 
ATOM      9  C14 UNL     1       5.911  -0.236  -1.657  0.00  0.00    +0.000 A 
ATOM     10  C15 UNL     1       4.969   0.758  -1.771  0.00  0.00    +0.000 A 
ATOM     11  C16 UNL     1       3.917   0.759  -0.860  0.00  0.00    +0.000 A 
BRANCH   7  12
ATOM     12  O3  UNL     1       4.635  -2.130   1.225  0.00  0.00    +0.000 OA
ATOM     13  H13 UNL     1       5.347  -2.828   1.265  0.00  0.00    +0.000 HD
ENDBRANCH   7  12
ENDBRANCH   4   6
ENDBRANCH   1   2
BRANCH   1  14
ATOM     14  C8  UNL     1      -0.608   1.290   2.282  0.00  0.00    +0.000 C 
BRANCH  14  21
ATOM     15  O1  UNL     1      -0.914   2.988  -0.019  0.00  0.00    +0.000 OA
ATOM     16  C1  UNL     1      -1.682   1.991   0.089  0.00  0.00    +0.000 A 
ATOM     17  N1  UNL     1      -2.592   1.765  -0.916  0.00  0.00    +0.000 N 
ATOM     18  C2  UNL     1      -3.450   0.748  -0.891  0.00  0.00    +0.000 A 
ATOM     19  C3  UNL     1      -3.389  -0.091   0.211  0.00  0.00    +0.000 A 
ATOM     20  C6  UNL     1      -2.491   0.107   1.230  0.00  0.00    +0.000 A 
ATOM     21  C7  UNL     1      -1.587   1.191   1.186  0.00  0.00    +0.000 A 
ATOM     22  C17 UNL     1      -4.398   0.558  -1.994  0.00  0.00    +0.000 C 
ATOM     23  H1  UNL     1      -2.587   2.438  -1.718  0.00  0.00    +0.000 HD
BRANCH  19  24
ATOM     24  C4  UNL     1      -4.362  -1.229   0.234  0.00  0.00    +0.000 C 
ATOM     25  C5  UNL     1      -3.953  -2.335  -0.695  0.00  0.00    +0.000 C 
ENDBRANCH  19  24
ENDBRANCH  14  21
ENDBRANCH   1  14
TORSDOF 6
