REMARK  Name = ./3D_structures\o28_MMV1782105_3D.pdb
REMARK  3 active torsions:
REMARK  status: ('A' for Active; 'I' for Inactive)
REMARK    1  A    between atoms: C6_9  and  C8_11
REMARK    2  A    between atoms: C8_11  and  S1_12
REMARK    3  A    between atoms: S1_12  and  C9_13
REMARK                            x       y       z     vdW  Elec       q    Type
REMARK                         _______ _______ _______ _____ _____    ______ ____
ROOT
ATOM      1 BR1  UNL     1      -6.360   0.120   1.694  0.00  0.00    +0.000 Br
ATOM      2  C1  UNL     1      -4.742   0.382   0.740  0.00  0.00    +0.000 A 
ATOM      3  C2  UNL     1      -3.542  -0.010   1.315  0.00  0.00    +0.000 A 
ATOM      4  C3  UNL     1      -2.302   0.197   0.704  0.00  0.00    +0.000 A 
ATOM      5  C4  UNL     1      -2.299   0.829  -0.533  0.00  0.00    +0.000 A 
ATOM      6  O1  UNL     1      -1.123   1.031  -1.068  0.00  0.00    +0.000 OA
ATOM      7  C5  UNL     1       0.000   0.702  -0.547  0.00  0.00    +0.000 A 
ATOM      8  O2  UNL     1       1.116   0.936  -1.143  0.00  0.00    +0.000 OA
ATOM      9  C6  UNL     1       0.073   0.069   0.673  0.00  0.00    +0.000 A 
ATOM     10  C7  UNL     1      -1.144  -0.204   1.334  0.00  0.00    +0.000 A 
ATOM     11  C12 UNL     1      -3.503   1.233  -1.153  0.00  0.00    +0.000 A 
ATOM     12  C13 UNL     1      -4.671   1.005  -0.513  0.00  0.00    +0.000 A 
ENDROOT
BRANCH   9  13
ATOM     13  C8  UNL     1       1.347  -0.080   1.452  0.00  0.00    +0.000 C 
BRANCH  13  14
ATOM     14  S1  UNL     1       2.253  -1.627   1.012  0.00  0.00    +0.000 S 
BRANCH  14  15
ATOM     15  C9  UNL     1       3.492  -1.142  -0.237  0.00  0.00    +0.000 A 
ATOM     16  N1  UNL     1       4.156  -1.859  -1.090  0.00  0.00    +0.000 NA
ATOM     17  C10 UNL     1       4.981  -1.071  -1.868  0.00  0.00    +0.000 A 
ATOM     18  C11 UNL     1       4.791   0.210  -1.444  0.00  0.00    +0.000 A 
ATOM     19  N2  UNL     1       3.872   0.165  -0.437  0.00  0.00    +0.000 N 
ATOM     20  H7  UNL     1       3.541   0.987   0.092  0.00  0.00    +0.000 HD
ENDBRANCH  14  15
ENDBRANCH  13  14
ENDBRANCH   9  13
TORSDOF 3
