REMARK  Name = ./3D_structures\o29_MMV1782104_3D.pdb
REMARK  6 active torsions:
REMARK  status: ('A' for Active; 'I' for Inactive)
REMARK    1  A    between atoms: N1_3  and  C6_11
REMARK    2  A    between atoms: C4_7  and  C5_8
REMARK    3  A    between atoms: C7_13  and  C8_14
REMARK    4  A    between atoms: C8_14  and  O4_15
REMARK    5  A    between atoms: C9_16  and  O6_19
REMARK    6  A    between atoms: C10_17  and  O5_18
REMARK                            x       y       z     vdW  Elec       q    Type
REMARK                         _______ _______ _______ _____ _____    ______ ____
ROOT
ATOM      1  O1  UNL     1       1.745  -0.525  -1.844  0.00  0.00    +0.000 OA
ATOM      2  C1  UNL     1       1.898   0.020  -0.698  0.00  0.00    +0.000 A 
ATOM      3  N1  UNL     1       0.852   0.400   0.044  0.00  0.00    +0.000 N 
ATOM      4  C2  UNL     1       0.988   0.981   1.263  0.00  0.00    +0.000 A 
ATOM      5  C3  UNL     1       2.257   1.183   1.746  0.00  0.00    +0.000 A 
ATOM      6  N2  UNL     1       3.324   0.801   1.002  0.00  0.00    +0.000 NA
ATOM      7  C4  UNL     1       3.169   0.227  -0.204  0.00  0.00    +0.000 A 
ENDROOT
BRANCH   7   8
ATOM      8  C5  UNL     1       4.310  -0.185  -1.008  0.00  0.00    +0.000 C 
ATOM      9  O2  UNL     1       4.163  -0.716  -2.124  0.00  0.00    +0.000 OA
ATOM     10  N3  UNL     1       5.610   0.029  -0.497  0.00  0.00    +0.000 N 
ATOM     11  H3  UNL     1       6.170   0.827  -0.844  0.00  0.00    +0.000 HD
ATOM     12  H4  UNL     1       5.998  -0.610   0.221  0.00  0.00    +0.000 HD
ENDBRANCH   7   8
BRANCH   3  13
ATOM     13  C6  UNL     1      -0.471   0.175  -0.491  0.00  0.00    +0.000 C 
ATOM     14  O3  UNL     1      -1.450   0.775   0.333  0.00  0.00    +0.000 OA
ATOM     15  C7  UNL     1      -2.619   0.325  -0.276  0.00  0.00    +0.000 C 
ATOM     16  C9  UNL     1      -2.401  -1.150  -0.579  0.00  0.00    +0.000 C 
ATOM     17  C10 UNL     1      -0.897  -1.276  -0.378  0.00  0.00    +0.000 C 
BRANCH  17  18
ATOM     18  O5  UNL     1      -0.308  -2.089  -1.313  0.00  0.00    +0.000 OA
ATOM     19  H12 UNL     1      -0.931  -2.827  -1.514  0.00  0.00    +0.000 HD
ENDBRANCH  17  18
BRANCH  16  20
ATOM     20  O6  UNL     1      -2.748  -1.347  -1.916  0.00  0.00    +0.000 OA
ATOM     21  H13 UNL     1      -3.455  -0.699  -2.142  0.00  0.00    +0.000 HD
ENDBRANCH  16  20
BRANCH  15  22
ATOM     22  C8  UNL     1      -3.815   0.474   0.639  0.00  0.00    +0.000 C 
BRANCH  22  23
ATOM     23  O4  UNL     1      -3.928   1.841   0.937  0.00  0.00    +0.000 OA
ATOM     24  H9  UNL     1      -4.444   2.274   0.204  0.00  0.00    +0.000 HD
ENDBRANCH  22  23
ENDBRANCH  15  22
ENDBRANCH   3  13
TORSDOF 6
