REMARK  Name = ./3D_structures\o2_MMV642550_3D.pdb
REMARK  5 active torsions:
REMARK  status: ('A' for Active; 'I' for Inactive)
REMARK    1  A    between atoms: N2_6  and  C4_7
REMARK    2  A    between atoms: C4_7  and  C5_8
REMARK    3  A    between atoms: C4_7  and  C14_19
REMARK    4  A    between atoms: C6_9  and  O1_10
REMARK    5  A    between atoms: C16_21  and  O2_25
REMARK                            x       y       z     vdW  Elec       q    Type
REMARK                         _______ _______ _______ _____ _____    ______ ____
ROOT
ATOM      1  C4  UNL     1      -1.298  -0.012  -0.490  0.00  0.00    +0.000 C 
ENDROOT
BRANCH   1   2
ATOM      2  C5  UNL     1       0.134   0.264  -0.244  0.00  0.00    +0.000 A 
ATOM      3  C6  UNL     1       1.146  -0.315  -0.972  0.00  0.00    +0.000 A 
ATOM      4  C7  UNL     1       2.484  -0.040  -0.713  0.00  0.00    +0.000 A 
ATOM      5  N3  UNL     1       3.437  -0.642  -1.464  0.00  0.00    +0.000 NA
ATOM      6  C8  UNL     1       4.751  -0.429  -1.276  0.00  0.00    +0.000 A 
ATOM      7  C9  UNL     1       5.102   0.444  -0.267  0.00  0.00    +0.000 A 
ATOM      8  C10 UNL     1       4.155   1.074   0.516  0.00  0.00    +0.000 A 
ATOM      9  C11 UNL     1       2.800   0.833   0.296  0.00  0.00    +0.000 A 
ATOM     10  C12 UNL     1       1.825   1.425   1.039  0.00  0.00    +0.000 A 
ATOM     11  C13 UNL     1       0.483   1.135   0.762  0.00  0.00    +0.000 A 
BRANCH   3  12
ATOM     12  O1  UNL     1       0.865  -1.199  -1.997  0.00  0.00    +0.000 OA
ATOM     13  H5  UNL     1       1.605  -1.622  -2.530  0.00  0.00    +0.000 HD
ENDBRANCH   3  12
ENDBRANCH   1   2
BRANCH   1  19
ATOM     14  S1  UNL     1      -1.031   3.118  -1.238  0.00  0.00    +0.000 S 
ATOM     15  C1  UNL     1      -2.141   2.295  -0.018  0.00  0.00    +0.000 A 
ATOM     16  N1  UNL     1      -2.748   3.310   0.426  0.00  0.00    +0.000 NA
ATOM     17  C2  UNL     1      -2.603   4.513   0.100  0.00  0.00    +0.000 A 
ATOM     18  C3  UNL     1      -1.640   4.837  -0.899  0.00  0.00    +0.000 A 
ATOM     19  N2  UNL     1      -2.165   0.911   0.217  0.00  0.00    +0.000 N 
ATOM     20  H3  UNL     1      -2.839   0.560   0.930  0.00  0.00    +0.000 HD
ENDBRANCH   1  19
BRANCH   1  21
ATOM     21  C14 UNL     1      -1.595  -1.392  -0.033  0.00  0.00    +0.000 A 
ATOM     22  C15 UNL     1      -1.736  -2.476  -0.868  0.00  0.00    +0.000 A 
ATOM     23  C16 UNL     1      -2.016  -3.747  -0.364  0.00  0.00    +0.000 A 
ATOM     24  C17 UNL     1      -2.150  -3.902   0.986  0.00  0.00    +0.000 A 
ATOM     25  C18 UNL     1      -2.017  -2.844   1.853  0.00  0.00    +0.000 A 
ATOM     26  C19 UNL     1      -1.738  -1.591   1.325  0.00  0.00    +0.000 A 
BRANCH  23  27
ATOM     27  O2  UNL     1      -2.160  -4.845  -1.196  0.00  0.00    +0.000 OA
ATOM     28  H15 UNL     1      -3.078  -5.078  -1.564  0.00  0.00    +0.000 HD
ENDBRANCH  23  27
ENDBRANCH   1  21
TORSDOF 5
