REMARK  Name = ./3D_structures\o30_MMV1782101_3D.pdb
REMARK  11 active torsions:
REMARK  status: ('A' for Active; 'I' for Inactive)
REMARK    1  A    between atoms: N1_3  and  C2_4
REMARK    2  A    between atoms: N3_12  and  C9_13
REMARK    3  A    between atoms: C9_13  and  C10_14
REMARK    4  A    between atoms: C10_14  and  C11_15
REMARK    5  A    between atoms: C11_15  and  C12_16
REMARK    6  A    between atoms: C12_16  and  O2_17
REMARK    7  A    between atoms: O2_17  and  C13_18
REMARK    8  A    between atoms: C16_21  and  C17_22
REMARK    9  A    between atoms: N4_23  and  O3_24
REMARK   10  A    between atoms: O3_24  and  C18_25
REMARK   11  A    between atoms: C18_25  and  C19_26
REMARK                            x       y       z     vdW  Elec       q    Type
REMARK                         _______ _______ _______ _____ _____    ______ ____
ROOT
ATOM      1  C10 UNL     1       1.678  -0.130  -0.041  0.00  0.00    +0.000 C 
ENDROOT
BRANCH   1   2
ATOM      2  C9  UNL     1       2.530  -1.122   0.698  0.00  0.00    +0.000 C 
BRANCH   2   8
ATOM      3  O1  UNL     1       4.857   0.591   1.685  0.00  0.00    +0.000 OA
ATOM      4  C1  UNL     1       4.920  -0.124   0.647  0.00  0.00    +0.000 C 
ATOM      5  N1  UNL     1       6.044  -0.201  -0.245  0.00  0.00    +0.000 N 
ATOM      6  C7  UNL     1       5.464  -0.709  -1.488  0.00  0.00    +0.000 C 
ATOM      7  C8  UNL     1       4.460  -1.703  -0.948  0.00  0.00    +0.000 C 
ATOM      8  N3  UNL     1       3.890  -0.982   0.174  0.00  0.00    +0.000 N 
BRANCH   5   9
ATOM      9  C2  UNL     1       7.376   0.137   0.030  0.00  0.00    +0.000 A 
ATOM     10  C3  UNL     1       7.894  -0.013   1.298  0.00  0.00    +0.000 A 
ATOM     11  C4  UNL     1       9.205   0.320   1.568  0.00  0.00    +0.000 A 
ATOM     12  N2  UNL     1      10.025   0.802   0.606  0.00  0.00    +0.000 NA
ATOM     13  C5  UNL     1       9.509   0.943  -0.620  0.00  0.00    +0.000 A 
ATOM     14  C6  UNL     1       8.208   0.629  -0.954  0.00  0.00    +0.000 A 
ENDBRANCH   5   9
ENDBRANCH   2   8
ENDBRANCH   1   2
BRANCH   1  15
ATOM     15  C11 UNL     1       0.237  -0.145   0.382  0.00  0.00    +0.000 C 
BRANCH  15  16
ATOM     16  C12 UNL     1      -0.444  -1.447   0.184  0.00  0.00    +0.000 C 
BRANCH  16  17
ATOM     17  O2  UNL     1      -1.748  -1.489   0.558  0.00  0.00    +0.000 OA
BRANCH  17  18
ATOM     18  C13 UNL     1      -2.897  -0.886   0.190  0.00  0.00    +0.000 A 
ATOM     19  C14 UNL     1      -4.087  -1.204   0.871  0.00  0.00    +0.000 A 
ATOM     20  C15 UNL     1      -5.293  -0.630   0.549  0.00  0.00    +0.000 A 
ATOM     21  C16 UNL     1      -5.393   0.293  -0.467  0.00  0.00    +0.000 A 
ATOM     22  C20 UNL     1      -4.246   0.622  -1.150  0.00  0.00    +0.000 A 
ATOM     23  C21 UNL     1      -3.012   0.036  -0.821  0.00  0.00    +0.000 A 
BRANCH  21  24
ATOM     24  C17 UNL     1      -6.679   0.909  -0.816  0.00  0.00    +0.000 C 
ATOM     25  N4  UNL     1      -7.762   0.610  -0.184  0.00  0.00    +0.000 NA
BRANCH  25  26
ATOM     26  O3  UNL     1      -8.959   1.185  -0.511  0.00  0.00    +0.000 OA
BRANCH  26  27
ATOM     27  C18 UNL     1      -9.984   1.401   0.429  0.00  0.00    +0.000 C 
ATOM     28  C19 UNL     1     -11.157   2.051  -0.269  0.00  0.00    +0.000 C 
ENDBRANCH  26  27
ENDBRANCH  25  26
ENDBRANCH  21  24
ENDBRANCH  17  18
ENDBRANCH  16  17
ENDBRANCH  15  16
ENDBRANCH   1  15
TORSDOF 10
