REMARK  Name = ./3D_structures\o31_MMV1633969_3D.pdb
REMARK  8 active torsions:
REMARK  status: ('A' for Active; 'I' for Inactive)
REMARK    1  A    between atoms: C3_6  and  C12_19
REMARK    2  A    between atoms: N2_10  and  C7_11
REMARK    3  A    between atoms: C8_13  and  C9_14
REMARK    4  A    between atoms: C9_14  and  O4_15
REMARK    5  A    between atoms: C10_16  and  O5_18
REMARK    6  A    between atoms: C15_22  and  C16_23
REMARK    7  A    between atoms: C16_23  and  C17_24
REMARK    8  A    between atoms: C17_24  and  C18_25
REMARK                            x       y       z     vdW  Elec       q    Type
REMARK                         _______ _______ _______ _____ _____    ______ ____
ROOT
ATOM      1  O1  UNL     1      -3.861  -0.676  -3.072  0.00  0.00    +0.000 OA
ATOM      2  C1  UNL     1      -2.973  -0.510  -2.196  0.00  0.00    +0.000 A 
ATOM      3  N1  UNL     1      -1.695  -0.661  -2.590  0.00  0.00    +0.000 NA
ATOM      4  C2  UNL     1      -0.672  -0.501  -1.714  0.00  0.00    +0.000 A 
ATOM      5  O2  UNL     1       0.628  -0.581  -1.800  0.00  0.00    +0.000 OA
ATOM      6  C3  UNL     1       1.239  -0.343  -0.675  0.00  0.00    +0.000 A 
ATOM      7  C4  UNL     1       0.239  -0.078   0.256  0.00  0.00    +0.000 A 
ATOM      8  C5  UNL     1      -0.966  -0.180  -0.407  0.00  0.00    +0.000 A 
ATOM      9  C6  UNL     1      -2.291  -0.039  -0.066  0.00  0.00    +0.000 A 
ATOM     10  N2  UNL     1      -3.308  -0.197  -0.931  0.00  0.00    +0.000 N 
ENDROOT
BRANCH   6  11
ATOM     11  C12 UNL     1       2.684  -0.347  -0.410  0.00  0.00    +0.000 A 
ATOM     12  C13 UNL     1       3.562  -0.627  -1.429  0.00  0.00    +0.000 A 
ATOM     13  C14 UNL     1       4.926  -0.650  -1.266  0.00  0.00    +0.000 A 
ATOM     14  C15 UNL     1       5.441  -0.382  -0.028  0.00  0.00    +0.000 A 
ATOM     15  C19 UNL     1       4.586  -0.097   1.016  0.00  0.00    +0.000 A 
ATOM     16  C20 UNL     1       3.199  -0.077   0.833  0.00  0.00    +0.000 A 
BRANCH  14  17
ATOM     17  C16 UNL     1       6.915  -0.406   0.157  0.00  0.00    +0.000 C 
BRANCH  17  18
ATOM     18  C17 UNL     1       7.418   1.007  -0.123  0.00  0.00    +0.000 C 
ATOM     19  C18 UNL     1       8.927   1.082   0.042  0.00  0.00    +0.000 C 
ENDBRANCH  17  18
ENDBRANCH  14  17
ENDBRANCH   6  11
BRANCH  10  20
ATOM     20  C7  UNL     1      -4.692  -0.052  -0.585  0.00  0.00    +0.000 C 
ATOM     21  O3  UNL     1      -4.910   0.783   0.505  0.00  0.00    +0.000 OA
ATOM     22  C8  UNL     1      -6.250   0.529   0.788  0.00  0.00    +0.000 C 
ATOM     23  C10 UNL     1      -6.235  -0.977   0.945  0.00  0.00    +0.000 C 
ATOM     24  C11 UNL     1      -5.355  -1.371  -0.248  0.00  0.00    +0.000 C 
BRANCH  23  25
ATOM     25  O5  UNL     1      -7.506  -1.528   0.824  0.00  0.00    +0.000 OA
ATOM     26  H11 UNL     1      -7.928  -1.476   1.723  0.00  0.00    +0.000 HD
ENDBRANCH  23  25
BRANCH  22  27
ATOM     27  C9  UNL     1      -6.693   1.219   2.058  0.00  0.00    +0.000 C 
BRANCH  27  28
ATOM     28  O4  UNL     1      -6.529   2.597   1.932  0.00  0.00    +0.000 OA
ATOM     29  H7  UNL     1      -6.421   2.863   0.978  0.00  0.00    +0.000 HD
ENDBRANCH  27  28
ENDBRANCH  22  27
ENDBRANCH  10  20
TORSDOF 7
