REMARK  Name = ./3D_structures\o32_MMV596723_3D.pdb
REMARK  3 active torsions:
REMARK  status: ('A' for Active; 'I' for Inactive)
REMARK    1  A    between atoms: C1_2  and  C12_15
REMARK    2  A    between atoms: N2_6  and  C4_7
REMARK    3  A    between atoms: C14_17  and  O2_25
REMARK                            x       y       z     vdW  Elec       q    Type
REMARK                         _______ _______ _______ _____ _____    ______ ____
ROOT
ATOM      1  O1  UNL     1      -1.884  -2.099   1.701  0.00  0.00    +0.000 OA
ATOM      2  C1  UNL     1      -1.659  -1.458   0.643  0.00  0.00    +0.000 C 
ATOM      3  N1  UNL     1      -0.302  -1.211   0.299  0.00  0.00    +0.000 N 
ATOM      4  C2  UNL     1       0.802  -1.674   1.126  0.00  0.00    +0.000 C 
ATOM      5  C3  UNL     1       1.745  -0.496   1.399  0.00  0.00    +0.000 C 
ATOM      6  N2  UNL     1       2.181   0.061   0.166  0.00  0.00    +0.000 N 
ATOM      7  C10 UNL     1       1.153   0.478  -0.782  0.00  0.00    +0.000 C 
ATOM      8  C11 UNL     1       0.019  -0.482  -0.902  0.00  0.00    +0.000 C 
ENDROOT
BRANCH   2   9
ATOM      9  C12 UNL     1      -2.723  -0.978  -0.212  0.00  0.00    +0.000 A 
ATOM     10  C13 UNL     1      -3.197  -1.761  -1.223  0.00  0.00    +0.000 A 
ATOM     11  C14 UNL     1      -4.206  -1.278  -2.017  0.00  0.00    +0.000 A 
ATOM     12  N3  UNL     1      -4.730  -0.054  -1.814  0.00  0.00    +0.000 NA
ATOM     13  C15 UNL     1      -4.254   0.707  -0.813  0.00  0.00    +0.000 A 
ATOM     14  C16 UNL     1      -4.818   1.953  -0.640  0.00  0.00    +0.000 A 
ATOM     15  C17 UNL     1      -4.370   2.777   0.369  0.00  0.00    +0.000 A 
ATOM     16  C18 UNL     1      -3.360   2.332   1.188  0.00  0.00    +0.000 A 
ATOM     17  C19 UNL     1      -2.767   1.096   1.052  0.00  0.00    +0.000 A 
ATOM     18  C20 UNL     1      -3.235   0.297   0.037  0.00  0.00    +0.000 A 
BRANCH  11  19
ATOM     19  O2  UNL     1      -4.675  -2.096  -3.045  0.00  0.00    +0.000 OA
ATOM     20  H19 UNL     1      -4.980  -3.029  -2.746  0.00  0.00    +0.000 HD
ENDBRANCH  11  19
ENDBRANCH   2   9
BRANCH   6  21
ATOM     21  C4  UNL     1       3.533   0.200  -0.154  0.00  0.00    +0.000 A 
ATOM     22  C5  UNL     1       3.927   1.119  -1.094  0.00  0.00    +0.000 A 
ATOM     23  C6  UNL     1       5.250   1.276  -1.452  0.00  0.00    +0.000 A 
ATOM     24  C7  UNL     1       6.193   0.470  -0.828  0.00  0.00    +0.000 A 
ATOM     25  C8  UNL     1       5.844  -0.456   0.112  0.00  0.00    +0.000 A 
ATOM     26  C9  UNL     1       4.489  -0.579   0.442  0.00  0.00    +0.000 A 
ENDBRANCH   6  21
TORSDOF 3
