REMARK  Name = ./3D_structures\o33_MMV1581378_3D.pdb
REMARK  1 active torsions:
REMARK  status: ('A' for Active; 'I' for Inactive)
REMARK    1  A    between atoms: C2_3  and  N1_4
REMARK                            x       y       z     vdW  Elec       q    Type
REMARK                         _______ _______ _______ _____ _____    ______ ____
ROOT
ATOM      1  I1  UNL     1       1.328   2.793  -0.663  0.00  0.00    +0.000 I 
ATOM      2  C1  UNL     1       0.888   0.789  -0.167  0.00  0.00    +0.000 A 
ATOM      3  C2  UNL     1       1.929  -0.069   0.096  0.00  0.00    +0.000 A 
ATOM      4  C3  UNL     1       1.594  -1.378   0.418  0.00  0.00    +0.000 A 
ATOM      5  C4  UNL     1       0.258  -1.763   0.462  0.00  0.00    +0.000 A 
ATOM      6  C5  UNL     1      -0.747  -0.867   0.190  0.00  0.00    +0.000 A 
ATOM      7  C6  UNL     1      -0.434   0.431  -0.130  0.00  0.00    +0.000 A 
ATOM      8  C7  UNL     1      -1.454   1.344  -0.406  0.00  0.00    +0.000 A 
ATOM      9  C8  UNL     1      -2.741   0.871  -0.338  0.00  0.00    +0.000 A 
ATOM     10  C9  UNL     1      -2.992  -0.445  -0.011  0.00  0.00    +0.000 A 
ATOM     11  O1  UNL     1      -2.003  -1.268   0.241  0.00  0.00    +0.000 OA
ATOM     12  O2  UNL     1      -4.202  -0.855   0.044  0.00  0.00    +0.000 OA
ENDROOT
BRANCH   3  13
ATOM     13  N1  UNL     1       3.298   0.351   0.045  0.00  0.00    +0.000 N 
ATOM     14  H1  UNL     1       3.889   0.151  -0.789  0.00  0.00    +0.000 HD
ATOM     15  H2  UNL     1       3.691   0.864   0.866  0.00  0.00    +0.000 HD
ENDBRANCH   3  13
TORSDOF 1
