REMARK  Name = ./3D_structures\o34_MMV1581031_3D.pdb
REMARK  2 active torsions:
REMARK  status: ('A' for Active; 'I' for Inactive)
REMARK    1  A    between atoms: C2_3  and  C7_9
REMARK    2  A    between atoms: C9_16  and  C11_18
REMARK                            x       y       z     vdW  Elec       q    Type
REMARK                         _______ _______ _______ _____ _____    ______ ____
ROOT
ATOM      1  C7  UNL     1      -1.226  -0.521  -0.085  0.00  0.00    +0.000 C 
ATOM      2  N1  UNL     1      -1.150  -0.579   1.375  0.00  0.00    +0.000 N 
ATOM      3  N2  UNL     1      -1.884  -0.195   2.375  0.00  0.00    +0.000 NA
ATOM      4  N3  UNL     1      -1.256  -0.544   3.483  0.00  0.00    +0.000 NA
ATOM      5  N4  UNL     1      -0.117  -1.153   3.200  0.00  0.00    +0.000 NA
ATOM      6  C8  UNL     1      -0.048  -1.175   1.854  0.00  0.00    +0.000 A 
ATOM      7  N5  UNL     1       0.888  -1.673   0.914  0.00  0.00    +0.000 N 
ATOM      8  C9  UNL     1       1.160  -0.928  -0.295  0.00  0.00    +0.000 C 
ATOM      9  C10 UNL     1       0.061   0.080  -0.559  0.00  0.00    +0.000 C 
ATOM     10  H5  UNL     1       1.377  -2.587   1.118  0.00  0.00    +0.000 HD
ENDROOT
BRANCH   1  13
ATOM     11 CL1  UNL     1      -3.628  -2.149   0.331  0.00  0.00    +0.000 Cl
ATOM     12  C1  UNL     1      -3.643  -0.559  -0.410  0.00  0.00    +0.000 A 
ATOM     13  C2  UNL     1      -2.448   0.117  -0.557  0.00  0.00    +0.000 A 
ATOM     14  C3  UNL     1      -2.523   1.365  -1.147  0.00  0.00    +0.000 A 
ATOM     15  C4  UNL     1      -3.747   1.900  -1.569  0.00  0.00    +0.000 A 
ATOM     16  C5  UNL     1      -4.920   1.196  -1.406  0.00  0.00    +0.000 A 
ATOM     17  C6  UNL     1      -4.850  -0.044  -0.820  0.00  0.00    +0.000 A 
ATOM     18  F1  UNL     1      -1.390   2.058  -1.307  0.00  0.00    +0.000 F 
ENDBRANCH   1  13
BRANCH   8  19
ATOM     19  C11 UNL     1       2.495  -0.282  -0.100  0.00  0.00    +0.000 A 
ATOM     20  C12 UNL     1       2.800   0.997  -0.437  0.00  0.00    +0.000 A 
ATOM     21  C13 UNL     1       4.081   1.512  -0.209  0.00  0.00    +0.000 A 
ATOM     22  C14 UNL     1       5.042   0.706   0.366  0.00  0.00    +0.000 A 
ATOM     23 CL2  UNL     1       6.650   1.342   0.656  0.00  0.00    +0.000 Cl
ATOM     24  C15 UNL     1       4.769  -0.581   0.715  0.00  0.00    +0.000 A 
ATOM     25  C16 UNL     1       3.499  -1.063   0.480  0.00  0.00    +0.000 A 
ENDBRANCH   8  19
TORSDOF 2
