REMARK  Name = ./3D_structures\o35_MMV1580797_3D.pdb
REMARK  10 active torsions:
REMARK  status: ('A' for Active; 'I' for Inactive)
REMARK    1  A    between atoms: C4_5  and  C5_6
REMARK    2  A    between atoms: C6_7  and  C21_25
REMARK    3  A    between atoms: N1_8  and  C7_9
REMARK    4  A    between atoms: C7_9  and  C8_10
REMARK    5  A    between atoms: C8_10  and  C9_11
REMARK    6  A    between atoms: C9_11  and  C10_12
REMARK    7  A    between atoms: C16_18  and  C17_20
REMARK    8  A    between atoms: C18_21  and  C19_22
REMARK    9  A    between atoms: C19_22  and  C20_23
REMARK   10  A    between atoms: C20_23  and  O1_24
REMARK                            x       y       z     vdW  Elec       q    Type
REMARK                         _______ _______ _______ _____ _____    ______ ____
ROOT
ATOM      1  C5  UNL     1      -2.763  -0.468  -0.565  0.00  0.00    +0.000 A 
ATOM      2  C6  UNL     1      -1.611  -0.923   0.035  0.00  0.00    +0.000 A 
ATOM      3  N1  UNL     1      -1.038   0.150   0.657  0.00  0.00    +0.000 N 
ATOM      4  C16 UNL     1      -1.806   1.248   0.455  0.00  0.00    +0.000 A 
ATOM      5  N2  UNL     1      -2.849   0.834  -0.294  0.00  0.00    +0.000 NA
ENDROOT
BRANCH   1  10
ATOM      6  F1  UNL     1      -6.160  -3.710  -3.587  0.00  0.00    +0.000 F 
ATOM      7  C1  UNL     1      -5.336  -2.927  -2.859  0.00  0.00    +0.000 A 
ATOM      8  C2  UNL     1      -4.041  -2.695  -3.237  0.00  0.00    +0.000 A 
ATOM      9  C3  UNL     1      -3.184  -1.889  -2.494  0.00  0.00    +0.000 A 
ATOM     10  C4  UNL     1      -3.672  -1.313  -1.341  0.00  0.00    +0.000 A 
ATOM     11  C26 UNL     1      -4.970  -1.535  -0.946  0.00  0.00    +0.000 A 
ATOM     12  C27 UNL     1      -5.810  -2.350  -1.714  0.00  0.00    +0.000 A 
ENDBRANCH   1  10
BRANCH   2  13
ATOM     13  C21 UNL     1      -1.075  -2.265   0.031  0.00  0.00    +0.000 A 
ATOM     14  C22 UNL     1      -0.165  -2.651  -0.922  0.00  0.00    +0.000 A 
ATOM     15  C23 UNL     1       0.359  -3.952  -0.930  0.00  0.00    +0.000 A 
ATOM     16  N3  UNL     1      -0.032  -4.819  -0.002  0.00  0.00    +0.000 NA
ATOM     17  C24 UNL     1      -0.926  -4.483   0.955  0.00  0.00    +0.000 A 
ATOM     18  C25 UNL     1      -1.458  -3.186   0.976  0.00  0.00    +0.000 A 
ENDBRANCH   2  13
BRANCH   4  19
ATOM     19  C17 UNL     1      -1.543   2.574   0.947  0.00  0.00    +0.000 C 
ATOM     20  C18 UNL     1      -1.333   3.688   1.378  0.00  0.00    +0.000 C 
BRANCH  20  21
ATOM     21  C19 UNL     1      -1.088   5.053   1.881  0.00  0.00    +0.000 C 
BRANCH  21  22
ATOM     22  C20 UNL     1       0.306   5.428   1.390  0.00  0.00    +0.000 C 
BRANCH  22  23
ATOM     23  O1  UNL     1       0.390   5.404   0.020  0.00  0.00    +0.000 OA
ATOM     24  H18 UNL     1       0.540   6.277  -0.403  0.00  0.00    +0.000 HD
ENDBRANCH  22  23
ENDBRANCH  21  22
ENDBRANCH  20  21
ENDBRANCH   4  19
BRANCH   3  25
ATOM     25  C7  UNL     1       0.197   0.077   1.404  0.00  0.00    +0.000 C 
BRANCH  25  26
ATOM     26  C8  UNL     1       1.418   0.334   0.554  0.00  0.00    +0.000 C 
BRANCH  26  27
ATOM     27  C9  UNL     1       2.625   0.220   1.475  0.00  0.00    +0.000 C 
BRANCH  27  28
ATOM     28  C10 UNL     1       3.896   0.456   0.737  0.00  0.00    +0.000 A 
ATOM     29  C11 UNL     1       4.450   1.718   0.614  0.00  0.00    +0.000 A 
ATOM     30  C12 UNL     1       5.631   1.933  -0.074  0.00  0.00    +0.000 A 
ATOM     31  C13 UNL     1       6.305   0.886  -0.668  0.00  0.00    +0.000 A 
ATOM     32  C14 UNL     1       5.751  -0.374  -0.546  0.00  0.00    +0.000 A 
ATOM     33  C15 UNL     1       4.570  -0.591   0.142  0.00  0.00    +0.000 A 
ENDBRANCH  27  28
ENDBRANCH  26  27
ENDBRANCH  25  26
ENDBRANCH   3  25
TORSDOF 10
