REMARK  Name = ./3D_structures\o36_MMV001761_3D.pdb
REMARK  8 active torsions:
REMARK  status: ('A' for Active; 'I' for Inactive)
REMARK    1  A    between atoms: O1_1  and  C1_2
REMARK    2  A    between atoms: O1_1  and  C4_7
REMARK    3  A    between atoms: C1_2  and  C2_3
REMARK    4  A    between atoms: C1_2  and  C3_5
REMARK    5  A    between atoms: C2_3  and  O2_4
REMARK    6  A    between atoms: C3_5  and  O3_6
REMARK    7  A    between atoms: C4_7  and  N1_8
REMARK    8  A    between atoms: C7_13  and  O4_17
REMARK                            x       y       z     vdW  Elec       q    Type
REMARK                         _______ _______ _______ _____ _____    ______ ____
ROOT
ATOM      1  N1  UNL     1       0.361  -1.120  -0.247  0.00  0.00    +0.000 N 
ATOM      2  C5  UNL     1       1.549  -0.469  -0.058  0.00  0.00    +0.000 A 
ATOM      3  N2  UNL     1       2.113   0.001   1.062  0.00  0.00    +0.000 NA
ATOM      4  C6  UNL     1       3.306   0.619   1.020  0.00  0.00    +0.000 C 
ATOM      5  N3  UNL     1       3.942   0.768  -0.165  0.00  0.00    +0.000 NA
ATOM      6  C7  UNL     1       3.436   0.321  -1.328  0.00  0.00    +0.000 C 
ATOM      7  C8  UNL     1       2.202  -0.314  -1.263  0.00  0.00    +0.000 A 
ATOM      8  N4  UNL     1       1.422  -0.866  -2.179  0.00  0.00    +0.000 NA
ATOM      9  C9  UNL     1       0.313  -1.351  -1.569  0.00  0.00    +0.000 A 
ATOM     10  N5  UNL     1       3.926   1.131   2.217  0.00  0.00    +0.000 N 
ATOM     11  H12 UNL     1       4.537   1.975   2.155  0.00  0.00    +0.000 HD
ATOM     12  H13 UNL     1       3.770   0.668   3.137  0.00  0.00    +0.000 HD
ENDROOT
BRANCH   6  13
ATOM     13  O4  UNL     1       4.084   0.470  -2.547  0.00  0.00    +0.000 OA
ATOM     14  H11 UNL     1       4.647  -0.259  -2.956  0.00  0.00    +0.000 HD
ENDBRANCH   6  13
BRANCH   1  15
ATOM     15  C4  UNL     1      -0.587  -1.465   0.786  0.00  0.00    +0.000 C 
BRANCH  15  16
ATOM     16  O1  UNL     1      -1.527  -0.516   1.065  0.00  0.00    +0.000 OA
BRANCH  16  17
ATOM     17  C1  UNL     1      -2.355  -0.148   0.038  0.00  0.00    +0.000 C 
BRANCH  17  18
ATOM     18  C2  UNL     1      -2.186   1.367  -0.141  0.00  0.00    +0.000 C 
BRANCH  18  19
ATOM     19  O2  UNL     1      -2.990   1.843  -1.168  0.00  0.00    +0.000 OA
ATOM     20  H4  UNL     1      -2.388   2.316  -1.822  0.00  0.00    +0.000 HD
ENDBRANCH  18  19
ENDBRANCH  17  18
BRANCH  17  21
ATOM     21  C3  UNL     1      -3.821  -0.383   0.355  0.00  0.00    +0.000 C 
BRANCH  21  22
ATOM     22  O3  UNL     1      -4.210   0.337   1.462  0.00  0.00    +0.000 OA
ATOM     23  H7  UNL     1      -3.779  -0.095   2.254  0.00  0.00    +0.000 HD
ENDBRANCH  21  22
ENDBRANCH  17  21
ENDBRANCH  16  17
ENDBRANCH  15  16
ENDBRANCH   1  15
TORSDOF 8
