REMARK  Name = ./3D_structures\o37_MMV002015_3D.pdb
REMARK  4 active torsions:
REMARK  status: ('A' for Active; 'I' for Inactive)
REMARK    1  A    between atoms: C4_5  and  C5_6
REMARK    2  A    between atoms: C5_6  and  N1_7
REMARK    3  A    between atoms: C12_15  and  C13_16
REMARK    4  A    between atoms: C13_16  and  N3_17
REMARK                            x       y       z     vdW  Elec       q    Type
REMARK                         _______ _______ _______ _____ _____    ______ ____
ROOT
ATOM      1  N1  UNL     1      -0.728   0.424   0.664  0.00  0.00    +0.000 N 
ATOM      2  C6  UNL     1      -1.119   1.730   0.676  0.00  0.00    +0.000 A 
ATOM      3  C7  UNL     1      -0.161   2.538   0.099  0.00  0.00    +0.000 A 
ATOM      4  C8  UNL     1      -0.304   3.901  -0.015  0.00  0.00    +0.000 A 
ATOM      5  C9  UNL     1      -1.436   4.520   0.453  0.00  0.00    +0.000 A 
ATOM      6  C10 UNL     1      -2.405   3.732   1.033  0.00  0.00    +0.000 A 
ATOM      7  C11 UNL     1      -2.257   2.364   1.145  0.00  0.00    +0.000 A 
ATOM      8  N2  UNL     1       0.826   1.688  -0.265  0.00  0.00    +0.000 NA
ATOM      9  C12 UNL     1       0.480   0.432   0.075  0.00  0.00    +0.000 A 
ENDROOT
BRANCH   1  10
ATOM     10  C5  UNL     1      -1.492  -0.691   1.188  0.00  0.00    +0.000 C 
BRANCH  10  15
ATOM     11 CL1  UNL     1      -5.021  -3.458  -2.907  0.00  0.00    +0.000 Cl
ATOM     12  C1  UNL     1      -4.006  -2.644  -1.715  0.00  0.00    +0.000 A 
ATOM     13  C2  UNL     1      -4.479  -1.565  -1.001  0.00  0.00    +0.000 A 
ATOM     14  C3  UNL     1      -3.682  -0.915  -0.056  0.00  0.00    +0.000 A 
ATOM     15  C4  UNL     1      -2.391  -1.327   0.200  0.00  0.00    +0.000 A 
ATOM     16  C18 UNL     1      -1.942  -2.416  -0.533  0.00  0.00    +0.000 A 
ATOM     17  C19 UNL     1      -2.718  -3.060  -1.464  0.00  0.00    +0.000 A 
ENDBRANCH  10  15
ENDBRANCH   1  10
BRANCH   9  18
ATOM     18  C13 UNL     1       1.305  -0.779  -0.166  0.00  0.00    +0.000 C 
BRANCH  18  19
ATOM     19  N3  UNL     1       2.651  -0.449  -0.591  0.00  0.00    +0.000 NA
ATOM     20  C14 UNL     1       3.264   0.330   0.466  0.00  0.00    +0.000 C 
ATOM     21  C15 UNL     1       4.744   0.008   0.437  0.00  0.00    +0.000 C 
ATOM     22  C16 UNL     1       4.879  -1.045  -0.650  0.00  0.00    +0.000 C 
ATOM     23  C17 UNL     1       3.469  -1.647  -0.603  0.00  0.00    +0.000 C 
ENDBRANCH  18  19
ENDBRANCH   9  18
TORSDOF 4
