REMARK  Name = ./3D_structures\o38_MMV056052_3D.pdb
REMARK  2 active torsions:
REMARK  status: ('A' for Active; 'I' for Inactive)
REMARK    1  A    between atoms: C1_2  and  N2_14
REMARK    2  A    between atoms: C2_3  and  C3_4
REMARK                            x       y       z     vdW  Elec       q    Type
REMARK                         _______ _______ _______ _____ _____    ______ ____
ROOT
ATOM      1  S1  UNL     1      -0.317   1.912   2.059  0.00  0.00    +0.000 S 
ATOM      2  C1  UNL     1      -1.874   1.192   1.606  0.00  0.00    +0.000 A 
ATOM      3  C2  UNL     1      -1.594   0.206   0.734  0.00  0.00    +0.000 A 
ATOM      4  C4  UNL     1      -0.287   0.012   0.433  0.00  0.00    +0.000 A 
ATOM      5  C5  UNL     1       0.626   0.813   1.022  0.00  0.00    +0.000 A 
ATOM      6  C6  UNL     1       2.127   0.910   0.945  0.00  0.00    +0.000 C 
ATOM      7  C7  UNL     1       2.523   1.046  -0.483  0.00  0.00    +0.000 C 
ATOM      8  C8  UNL     1       2.367  -0.237  -1.266  0.00  0.00    +0.000 C 
ATOM      9  C9  UNL     1       1.632  -1.290  -0.507  0.00  0.00    +0.000 C 
ATOM     10  C10 UNL     1       0.138  -1.074  -0.528  0.00  0.00    +0.000 C 
ENDROOT
BRANCH   3  11
ATOM     11  C3  UNL     1      -2.696  -0.589   0.160  0.00  0.00    +0.000 C 
ATOM     12  O1  UNL     1      -3.883  -0.304   0.528  0.00  0.00    +0.000 OA
ATOM     13  N1  UNL     1      -2.535  -1.641  -0.767  0.00  0.00    +0.000 N 
ATOM     14  H1  UNL     1      -2.398  -1.480  -1.772  0.00  0.00    +0.000 HD
ATOM     15  H2  UNL     1      -2.565  -2.630  -0.428  0.00  0.00    +0.000 HD
ENDBRANCH   3  11
BRANCH   2  16
ATOM     16  N2  UNL     1      -3.152   1.646   2.126  0.00  0.00    +0.000 N 
ATOM     17  H13 UNL     1      -3.648   1.073   2.828  0.00  0.00    +0.000 HD
ATOM     18  H14 UNL     1      -3.564   2.537   1.798  0.00  0.00    +0.000 HD
ENDBRANCH   2  16
TORSDOF 2
