REMARK  Name = ./3D_structures\o39_MMV1580504_3D.pdb
REMARK  7 active torsions:
REMARK  status: ('A' for Active; 'I' for Inactive)
REMARK    1  A    between atoms: O1_1  and  C1_2
REMARK    2  A    between atoms: O1_1  and  C14_17
REMARK    3  A    between atoms: C2_3  and  C7_8
REMARK    4  A    between atoms: C7_8  and  N1_9
REMARK    5  A    between atoms: N1_9  and  C8_10
REMARK    6  A    between atoms: C11_13  and  O2_14
REMARK    7  A    between atoms: C14_17  and  C15_18
REMARK                            x       y       z     vdW  Elec       q    Type
REMARK                         _______ _______ _______ _____ _____    ______ ____
ROOT
ATOM      1  C1  UNL     1      -0.860  -0.311   0.209  0.00  0.00    +0.000 A 
ATOM      2  C2  UNL     1       0.357   0.276  -0.149  0.00  0.00    +0.000 A 
ATOM      3  C3  UNL     1       0.937  -0.087  -1.334  0.00  0.00    +0.000 A 
ATOM      4  C4  UNL     1       0.355  -1.023  -2.193  0.00  0.00    +0.000 A 
ATOM      5  C5  UNL     1      -0.844  -1.576  -1.798  0.00  0.00    +0.000 A 
ATOM      6  C6  UNL     1      -1.471  -1.234  -0.598  0.00  0.00    +0.000 A 
ENDROOT
BRANCH   1   7
ATOM      7  O1  UNL     1      -1.418   0.067   1.395  0.00  0.00    +0.000 OA
BRANCH   7   8
ATOM      8  C14 UNL     1      -2.635  -0.426   1.887  0.00  0.00    +0.000 C 
BRANCH   8   9
ATOM      9  C15 UNL     1      -3.781  -0.123   0.992  0.00  0.00    +0.000 A 
ATOM     10  C16 UNL     1      -3.687   0.832  -0.022  0.00  0.00    +0.000 A 
ATOM     11  C17 UNL     1      -4.772   1.087  -0.836  0.00  0.00    +0.000 A 
ATOM     12  C18 UNL     1      -5.987   0.420  -0.690  0.00  0.00    +0.000 A 
ATOM     13  C19 UNL     1      -6.068  -0.519   0.312  0.00  0.00    +0.000 A 
ATOM     14  C20 UNL     1      -4.992  -0.768   1.115  0.00  0.00    +0.000 A 
ENDBRANCH   8   9
ENDBRANCH   7   8
ENDBRANCH   1   7
BRANCH   2  15
ATOM     15  C7  UNL     1       0.955   1.274   0.764  0.00  0.00    +0.000 C 
BRANCH  15  16
ATOM     16  N1  UNL     1       2.207   1.805   0.331  0.00  0.00    +0.000 N 
ATOM     17  H7  UNL     1       2.223   2.831   0.086  0.00  0.00    +0.000 HD
BRANCH  16  18
ATOM     18  C8  UNL     1       3.398   1.067   0.213  0.00  0.00    +0.000 A 
ATOM     19  C9  UNL     1       4.544   1.648  -0.305  0.00  0.00    +0.000 A 
ATOM     20  C10 UNL     1       5.737   0.994  -0.439  0.00  0.00    +0.000 A 
ATOM     21  C11 UNL     1       5.840  -0.314  -0.047  0.00  0.00    +0.000 A 
ATOM     22  C12 UNL     1       4.715  -0.926   0.475  0.00  0.00    +0.000 A 
ATOM     23  C13 UNL     1       3.519  -0.251   0.603  0.00  0.00    +0.000 A 
BRANCH  21  24
ATOM     24  O2  UNL     1       7.017  -1.043  -0.152  0.00  0.00    +0.000 OA
ATOM     25  H10 UNL     1       7.712  -1.090   0.571  0.00  0.00    +0.000 HD
ENDBRANCH  21  24
ENDBRANCH  16  18
ENDBRANCH  15  16
ENDBRANCH   2  15
TORSDOF 7
