REMARK  Name = ./3D_structures\o3_MMV1580798_3D.pdb
REMARK  9 active torsions:
REMARK  status: ('A' for Active; 'I' for Inactive)
REMARK    1  A    between atoms: C1_2  and  C9_11
REMARK    2  A    between atoms: N1_3  and  C2_4
REMARK    3  A    between atoms: N1_3  and  C8_10
REMARK    4  A    between atoms: C9_11  and  N2_12
REMARK    5  A    between atoms: C9_11  and  C21_26
REMARK    6  A    between atoms: C10_13  and  C11_15
REMARK    7  A    between atoms: C11_15  and  C12_16
REMARK    8  A    between atoms: C13_17  and  C20_25
REMARK    9  A    between atoms: C21_26  and  C22_27
REMARK                            x       y       z     vdW  Elec       q    Type
REMARK                         _______ _______ _______ _____ _____    ______ ____
ROOT
ATOM      1  C9  UNL     1      -0.513   0.955  -0.252  0.00  0.00    +0.000 C 
ENDROOT
BRANCH   1   3
ATOM      2  O1  UNL     1      -1.028  -0.689  -1.871  0.00  0.00    +0.000 OA
ATOM      3  C1  UNL     1      -1.390  -0.124  -0.778  0.00  0.00    +0.000 C 
ATOM      4  N1  UNL     1      -2.572  -0.574  -0.180  0.00  0.00    +0.000 N 
ATOM      5  C8  UNL     1      -2.934  -0.113   1.140  0.00  0.00    +0.000 C 
BRANCH   4   6
ATOM      6  C2  UNL     1      -3.395  -1.510  -0.835  0.00  0.00    +0.000 A 
ATOM      7  C3  UNL     1      -3.645  -1.413  -2.196  0.00  0.00    +0.000 A 
ATOM      8  C4  UNL     1      -4.453  -2.310  -2.857  0.00  0.00    +0.000 A 
ATOM      9  C5  UNL     1      -5.039  -3.339  -2.164  0.00  0.00    +0.000 A 
ATOM     10  C6  UNL     1      -4.814  -3.463  -0.824  0.00  0.00    +0.000 A 
ATOM     11  C7  UNL     1      -4.000  -2.556  -0.169  0.00  0.00    +0.000 A 
ENDBRANCH   4   6
ENDBRANCH   1   3
BRANCH   1  12
ATOM     12  N2  UNL     1       0.790   0.899  -0.971  0.00  0.00    +0.000 N 
ATOM     13  C10 UNL     1       1.866   0.280  -0.298  0.00  0.00    +0.000 C 
ATOM     14  O2  UNL     1       1.689  -0.201   0.853  0.00  0.00    +0.000 OA
ATOM     15  H10 UNL     1       0.898   1.294  -1.919  0.00  0.00    +0.000 HD
BRANCH  13  16
ATOM     16  C11 UNL     1       3.210   0.186  -0.932  0.00  0.00    +0.000 C 
BRANCH  16  17
ATOM     17  C12 UNL     1       4.137  -0.617  -0.088  0.00  0.00    +0.000 A 
ATOM     18  C13 UNL     1       4.121  -2.002  -0.046  0.00  0.00    +0.000 A 
ATOM     19  N3  UNL     1       5.069  -2.365   0.821  0.00  0.00    +0.000 N 
ATOM     20  C14 UNL     1       5.679  -1.264   1.327  0.00  0.00    +0.000 A 
ATOM     21  C15 UNL     1       5.103  -0.145   0.763  0.00  0.00    +0.000 A 
ATOM     22  C16 UNL     1       5.544   1.134   1.112  0.00  0.00    +0.000 A 
ATOM     23  C17 UNL     1       6.562   1.289   2.028  0.00  0.00    +0.000 A 
ATOM     24  C18 UNL     1       7.120   0.147   2.577  0.00  0.00    +0.000 A 
ATOM     25  C19 UNL     1       6.696  -1.113   2.241  0.00  0.00    +0.000 A 
ATOM     26  C20 UNL     1       3.191  -2.858  -0.859  0.00  0.00    +0.000 C 
ATOM     27  H13 UNL     1       5.281  -3.363   1.053  0.00  0.00    +0.000 HD
ENDBRANCH  16  17
ENDBRANCH  13  16
ENDBRANCH   1  12
BRANCH   1  28
ATOM     28  C21 UNL     1      -0.996   2.339  -0.503  0.00  0.00    +0.000 C 
BRANCH  28  29
ATOM     29  C22 UNL     1      -2.298   2.728   0.022  0.00  0.00    +0.000 A 
ATOM     30  C23 UNL     1      -2.483   3.235   1.275  0.00  0.00    +0.000 A 
ATOM     31  C24 UNL     1      -3.731   3.609   1.736  0.00  0.00    +0.000 A 
ATOM     32  C25 UNL     1      -4.819   3.475   0.931  0.00  0.00    +0.000 A 
ATOM     33  C26 UNL     1      -4.676   2.971  -0.333  0.00  0.00    +0.000 A 
ATOM     34  C27 UNL     1      -3.414   2.598  -0.784  0.00  0.00    +0.000 A 
ENDBRANCH  28  29
ENDBRANCH   1  28
TORSDOF 7
