REMARK  Name = ./3D_structures\o40_MMV001961_3D.pdb
REMARK  6 active torsions:
REMARK  status: ('A' for Active; 'I' for Inactive)
REMARK    1  A    between atoms: O1_1  and  C1_2
REMARK    2  A    between atoms: O1_1  and  C7_14
REMARK    3  A    between atoms: C1_2  and  N1_3
REMARK    4  A    between atoms: C4_8  and  O2_12
REMARK    5  A    between atoms: C7_14  and  C8_15
REMARK    6  A    between atoms: C8_15  and  O3_16
REMARK                            x       y       z     vdW  Elec       q    Type
REMARK                         _______ _______ _______ _____ _____    ______ ____
ROOT
ATOM      1  N1  UNL     1      -0.154   0.837   0.850  0.00  0.00    +0.000 N 
ATOM      2  C2  UNL     1      -1.298   0.242   0.501  0.00  0.00    +0.000 A 
ATOM      3  N2  UNL     1      -1.653  -1.054   0.270  0.00  0.00    +0.000 NA
ATOM      4  C3  UNL     1      -2.895  -1.413  -0.078  0.00  0.00    +0.000 C 
ATOM      5  N3  UNL     1      -3.844  -0.455  -0.207  0.00  0.00    +0.000 NA
ATOM      6  C4  UNL     1      -3.585   0.845   0.000  0.00  0.00    +0.000 C 
ATOM      7  C5  UNL     1      -2.299   1.191   0.357  0.00  0.00    +0.000 A 
ATOM      8  N4  UNL     1      -1.730   2.374   0.629  0.00  0.00    +0.000 NA
ATOM      9  C6  UNL     1      -0.417   2.152   0.930  0.00  0.00    +0.000 A 
ATOM     10  N5  UNL     1      -3.258  -2.771  -0.317  0.00  0.00    +0.000 N 
ATOM     11  H5  UNL     1      -2.962  -3.298  -1.162  0.00  0.00    +0.000 HD
ATOM     12  H6  UNL     1      -3.860  -3.245   0.418  0.00  0.00    +0.000 HD
ENDROOT
BRANCH   6  13
ATOM     13  O2  UNL     1      -4.585   1.794  -0.143  0.00  0.00    +0.000 OA
ATOM     14  H4  UNL     1      -4.940   2.310   0.647  0.00  0.00    +0.000 HD
ENDBRANCH   6  13
BRANCH   1  15
ATOM     15  C1  UNL     1       1.117   0.233   1.099  0.00  0.00    +0.000 C 
BRANCH  15  16
ATOM     16  O1  UNL     1       1.911   0.141  -0.061  0.00  0.00    +0.000 OA
BRANCH  16  17
ATOM     17  C7  UNL     1       3.106  -0.466   0.352  0.00  0.00    +0.000 C 
BRANCH  17  18
ATOM     18  C8  UNL     1       4.062  -0.625  -0.819  0.00  0.00    +0.000 C 
BRANCH  18  19
ATOM     19  O3  UNL     1       4.370   0.621  -1.370  0.00  0.00    +0.000 OA
ATOM     20  H11 UNL     1       4.736   1.241  -0.670  0.00  0.00    +0.000 HD
ENDBRANCH  18  19
ENDBRANCH  17  18
ENDBRANCH  16  17
ENDBRANCH  15  16
ENDBRANCH   1  15
TORSDOF 6
