REMARK  Name = ./3D_structures\o41_MMV003738_3D.pdb
REMARK  5 active torsions:
REMARK  status: ('A' for Active; 'I' for Inactive)
REMARK    1  A    between atoms: C3_5  and  C5_7
REMARK    2  A    between atoms: C7_9  and  O3_15
REMARK    3  A    between atoms: C8_10  and  O2_11
REMARK    4  A    between atoms: O2_11  and  C9_12
REMARK    5  A    between atoms: O3_15  and  C12_16
REMARK                            x       y       z     vdW  Elec       q    Type
REMARK                         _______ _______ _______ _____ _____    ______ ____
ROOT
ATOM      1  C5  UNL     1       2.115  -0.087   0.043  0.00  0.00    +0.000 A 
ATOM      2  C6  UNL     1       0.907  -0.713  -0.152  0.00  0.00    +0.000 A 
ATOM      3  C7  UNL     1      -0.326  -0.057  -0.014  0.00  0.00    +0.000 A 
ATOM      4  C8  UNL     1      -0.255   1.270   0.331  0.00  0.00    +0.000 A 
ATOM      5  C10 UNL     1       0.973   1.921   0.533  0.00  0.00    +0.000 A 
ATOM      6  C11 UNL     1       2.162   1.248   0.390  0.00  0.00    +0.000 A 
ENDROOT
BRANCH   1  11
ATOM      7  O1  UNL     1       6.631  -1.413   1.175  0.00  0.00    +0.000 OA
ATOM      8  C1  UNL     1       5.616  -0.877   0.620  0.00  0.00    +0.000 C 
ATOM      9  N1  UNL     1       5.613  -0.279  -0.667  0.00  0.00    +0.000 N 
ATOM     10  C2  UNL     1       4.247  -0.139  -1.166  0.00  0.00    +0.000 C 
ATOM     11  C3  UNL     1       3.414  -0.816  -0.106  0.00  0.00    +0.000 C 
ATOM     12  C4  UNL     1       4.232  -0.749   1.166  0.00  0.00    +0.000 C 
ATOM     13  H1  UNL     1       6.470   0.027  -1.204  0.00  0.00    +0.000 HD
ENDBRANCH   1  11
BRANCH   4  14
ATOM     14  O2  UNL     1      -1.429   2.009   0.492  0.00  0.00    +0.000 OA
ATOM     15  C9  UNL     1      -1.397   3.369   0.846  0.00  0.00    +0.000 C 
ENDBRANCH   4  14
BRANCH   3  16
ATOM     16  O3  UNL     1      -1.481  -0.694  -0.210  0.00  0.00    +0.000 OA
BRANCH  16  17
ATOM     17  C12 UNL     1      -2.805  -0.530  -0.192  0.00  0.00    +0.000 C 
ATOM     18  C13 UNL     1      -3.540  -1.286   0.912  0.00  0.00    +0.000 C 
ATOM     19  C14 UNL     1      -4.844  -1.759   0.335  0.00  0.00    +0.000 C 
ATOM     20  C15 UNL     1      -5.001  -0.887  -0.886  0.00  0.00    +0.000 C 
ATOM     21  C16 UNL     1      -3.568  -0.914  -1.443  0.00  0.00    +0.000 C 
ENDBRANCH  16  17
ENDBRANCH   3  16
TORSDOF 4
