REMARK  Name = ./3D_structures\o42_MMV690540_3D.pdb
REMARK  2 active torsions:
REMARK  status: ('A' for Active; 'I' for Inactive)
REMARK    1  A    between atoms: C2_3  and  O1_4
REMARK    2  A    between atoms: C4_9  and  C5_10
REMARK                            x       y       z     vdW  Elec       q    Type
REMARK                         _______ _______ _______ _____ _____    ______ ____
ROOT
ATOM      1 BR1  UNL     1      -0.216   2.917  -0.229  0.00  0.00    +0.000 Br
ATOM      2  C1  UNL     1      -1.163   1.288  -0.219  0.00  0.00    +0.000 C 
ATOM      3  C2  UNL     1      -2.548   1.307  -0.322  0.00  0.00    +0.000 C 
ATOM      4  N1  UNL     1      -3.218   0.147  -0.313  0.00  0.00    +0.000 NA
ATOM      5  C3  UNL     1      -2.561  -1.022  -0.205  0.00  0.00    +0.000 C 
ATOM      6  N2  UNL     1      -3.324  -2.220  -0.200  0.00  0.00    +0.000 N 
ATOM      7  N3  UNL     1      -1.241  -1.031  -0.107  0.00  0.00    +0.000 NA
ATOM      8  C4  UNL     1      -0.474   0.098  -0.107  0.00  0.00    +0.000 C 
ATOM      9  H2  UNL     1      -2.975  -3.105  -0.676  0.00  0.00    +0.000 HD
ATOM     10  H3  UNL     1      -4.256  -2.318   0.257  0.00  0.00    +0.000 HD
ENDROOT
BRANCH   8  11
ATOM     11  C5  UNL     1       0.976   0.008   0.006  0.00  0.00    +0.000 A 
ATOM     12  C6  UNL     1       1.860   0.717  -0.778  0.00  0.00    +0.000 A 
ATOM     13  C7  UNL     1       3.239   0.597  -0.629  0.00  0.00    +0.000 A 
ATOM     14  C8  UNL     1       3.753  -0.253   0.327  0.00  0.00    +0.000 A 
ATOM     15  C9  UNL     1       2.906  -0.966   1.116  0.00  0.00    +0.000 A 
ATOM     16  C10 UNL     1       1.528  -0.834   0.954  0.00  0.00    +0.000 A 
ENDBRANCH   8  11
BRANCH   3  17
ATOM     17  O1  UNL     1      -3.266   2.488  -0.436  0.00  0.00    +0.000 OA
ATOM     18  H1  UNL     1      -3.384   3.060   0.403  0.00  0.00    +0.000 HD
ENDBRANCH   3  17
TORSDOF 2
