REMARK  Name = ./3D_structures\o43_MMV614278_3D.pdb
REMARK  4 active torsions:
REMARK  status: ('A' for Active; 'I' for Inactive)
REMARK    1  A    between atoms: C2_3  and  C7_9
REMARK    2  A    between atoms: C10_16  and  C12_18
REMARK    3  A    between atoms: C15_21  and  O1_22
REMARK    4  A    between atoms: O1_22  and  C16_23
REMARK                            x       y       z     vdW  Elec       q    Type
REMARK                         _______ _______ _______ _____ _____    ______ ____
ROOT
ATOM      1  C7  UNL     1      -1.974  -0.716   0.682  0.00  0.00    +0.000 C 
ATOM      2  N1  UNL     1      -2.262  -1.686  -0.329  0.00  0.00    +0.000 N 
ATOM      3  N2  UNL     1      -3.433  -2.290  -0.660  0.00  0.00    +0.000 NA
ATOM      4  C8  UNL     1      -3.226  -3.129  -1.671  0.00  0.00    +0.000 A 
ATOM      5  N3  UNL     1      -1.925  -3.047  -1.969  0.00  0.00    +0.000 NA
ATOM      6  C9  UNL     1      -1.322  -2.148  -1.133  0.00  0.00    +0.000 A 
ATOM      7  N4  UNL     1       0.049  -1.719  -1.062  0.00  0.00    +0.000 N 
ATOM      8  C10 UNL     1       0.344  -0.746  -0.051  0.00  0.00    +0.000 C 
ATOM      9  C11 UNL     1      -0.595  -0.301   0.735  0.00  0.00    +0.000 C 
ATOM     10  H6  UNL     1       0.712  -2.130  -1.726  0.00  0.00    +0.000 HD
ENDROOT
BRANCH   1  13
ATOM     11 CL1  UNL     1      -4.767  -1.381   1.713  0.00  0.00    +0.000 Cl
ATOM     12  C1  UNL     1      -4.215   0.169   1.113  0.00  0.00    +0.000 A 
ATOM     13  C2  UNL     1      -2.942   0.411   0.667  0.00  0.00    +0.000 A 
ATOM     14  C3  UNL     1      -2.602   1.648   0.225  0.00  0.00    +0.000 A 
ATOM     15  C4  UNL     1      -3.518   2.710   0.205  0.00  0.00    +0.000 A 
ATOM     16  C5  UNL     1      -4.808   2.472   0.655  0.00  0.00    +0.000 A 
ATOM     17  C6  UNL     1      -5.139   1.222   1.098  0.00  0.00    +0.000 A 
ATOM     18  F1  UNL     1      -1.366   1.932  -0.222  0.00  0.00    +0.000 F 
ENDBRANCH   1  13
BRANCH   8  19
ATOM     19  C12 UNL     1       1.743  -0.285   0.051  0.00  0.00    +0.000 A 
ATOM     20  C13 UNL     1       2.715  -0.765  -0.788  0.00  0.00    +0.000 A 
ATOM     21  C14 UNL     1       4.012  -0.325  -0.678  0.00  0.00    +0.000 A 
ATOM     22  C15 UNL     1       4.374   0.601   0.268  0.00  0.00    +0.000 A 
ATOM     23  C17 UNL     1       3.409   1.089   1.115  0.00  0.00    +0.000 A 
ATOM     24  C18 UNL     1       2.086   0.643   1.004  0.00  0.00    +0.000 A 
BRANCH  22  25
ATOM     25  O1  UNL     1       5.669   1.074   0.418  0.00  0.00    +0.000 OA
ATOM     26  C16 UNL     1       6.767   0.688  -0.352  0.00  0.00    +0.000 C 
ENDBRANCH  22  25
ENDBRANCH   8  19
TORSDOF 3
