REMARK  Name = ./3D_structures\o44_MMV1580489_3D.pdb
REMARK  6 active torsions:
REMARK  status: ('A' for Active; 'I' for Inactive)
REMARK    1  A    between atoms: C1_1  and  C2_2
REMARK    2  A    between atoms: C2_2  and  N1_3
REMARK    3  A    between atoms: N1_3  and  C22_28
REMARK    4  A    between atoms: C5_6  and  N2_9
REMARK    5  A    between atoms: C8_10  and  C9_12
REMARK    6  A    between atoms: C22_28  and  C23_29
REMARK                            x       y       z     vdW  Elec       q    Type
REMARK                         _______ _______ _______ _____ _____    ______ ____
ROOT
ATOM      1  N2  UNL     1       2.409   0.092   0.095  0.00  0.00    +0.000 N 
ATOM      2  C8  UNL     1       3.060   0.044  -1.177  0.00  0.00    +0.000 C 
ATOM      3  O1  UNL     1       2.374  -0.058  -2.215  0.00  0.00    +0.000 OA
ATOM      4  H15 UNL     1       3.007   0.176   0.942  0.00  0.00    +0.000 HD
ENDROOT
BRANCH   2   5
ATOM      5  C9  UNL     1       4.548   0.111  -1.321  0.00  0.00    +0.000 C 
ATOM      6  C10 UNL     1       5.205  -0.981  -0.576  0.00  0.00    +0.000 A 
ATOM      7  C11 UNL     1       6.120  -0.707   0.401  0.00  0.00    +0.000 A 
ATOM      8  O2  UNL     1       6.463   0.603   0.735  0.00  0.00    +0.000 OA
ATOM      9  C12 UNL     1       5.876   1.668   0.076  0.00  0.00    +0.000 A 
ATOM     10  C13 UNL     1       4.962   1.447  -0.899  0.00  0.00    +0.000 A 
ATOM     11  C14 UNL     1       4.388   2.554  -1.544  0.00  0.00    +0.000 A 
ATOM     12  C15 UNL     1       4.739   3.833  -1.199  0.00  0.00    +0.000 A 
ATOM     13 CL1  UNL     1       3.982   5.194  -2.043  0.00  0.00    +0.000 Cl
ATOM     14  C16 UNL     1       5.667   4.054  -0.209  0.00  0.00    +0.000 A 
ATOM     15  C17 UNL     1       6.237   2.978   0.431  0.00  0.00    +0.000 A 
ATOM     16  C18 UNL     1       6.711  -1.782   1.066  0.00  0.00    +0.000 A 
ATOM     17  C19 UNL     1       6.385  -3.078   0.751  0.00  0.00    +0.000 A 
ATOM     18  C20 UNL     1       5.465  -3.368  -0.229  0.00  0.00    +0.000 A 
ATOM     19  C21 UNL     1       4.890  -2.298  -0.876  0.00  0.00    +0.000 A 
ATOM     20 CL2  UNL     1       5.020  -5.014  -0.661  0.00  0.00    +0.000 Cl
ENDBRANCH   2   5
BRANCH   1  24
ATOM     21  N1  UNL     1      -1.725  -0.271   1.196  0.00  0.00    +0.000 N 
ATOM     22  C3  UNL     1      -0.685   0.544   1.888  0.00  0.00    +0.000 C 
ATOM     23  C4  UNL     1       0.332   1.113   0.968  0.00  0.00    +0.000 C 
ATOM     24  C5  UNL     1       0.967   0.023   0.171  0.00  0.00    +0.000 C 
ATOM     25  C6  UNL     1       0.500  -1.285   0.776  0.00  0.00    +0.000 C 
ATOM     26  C7  UNL     1      -1.023  -1.321   0.547  0.00  0.00    +0.000 C 
BRANCH  21  28
ATOM     27  C1  UNL     1      -2.353  -2.076   2.775  0.00  0.00    +0.000 C 
ATOM     28  C2  UNL     1      -2.583  -0.677   2.298  0.00  0.00    +0.000 C 
ENDBRANCH  21  28
BRANCH  21  29
ATOM     29  C22 UNL     1      -2.354   0.597   0.271  0.00  0.00    +0.000 C 
BRANCH  29  30
ATOM     30  C23 UNL     1      -3.427   0.172  -0.586  0.00  0.00    +0.000 C 
ATOM     31  C24 UNL     1      -3.870  -1.056  -0.562  0.00  0.00    +0.000 C 
ATOM     32  C25 UNL     1      -4.921  -1.883  -1.255  0.00  0.00    +0.000 C 
ATOM     33  C26 UNL     1      -6.044  -1.032  -1.788  0.00  0.00    +0.000 C 
ATOM     34  C27 UNL     1      -6.465  -0.050  -0.743  0.00  0.00    +0.000 C 
ATOM     35  C28 UNL     1      -6.411   1.334  -1.325  0.00  0.00    +0.000 C 
ATOM     36  C29 UNL     1      -5.118   1.977  -0.837  0.00  0.00    +0.000 C 
ATOM     37  C30 UNL     1      -3.897   1.335  -1.438  0.00  0.00    +0.000 C 
ENDBRANCH  29  30
ENDBRANCH  21  29
ENDBRANCH   1  24
TORSDOF 5
