REMARK  Name = ./3D_structures\o45_MMV1580499_3D.pdb
REMARK  5 active torsions:
REMARK  status: ('A' for Active; 'I' for Inactive)
REMARK    1  A    between atoms: C4_5  and  S2_7
REMARK    2  A    between atoms: S2_7  and  N1_10
REMARK    3  A    between atoms: N1_10  and  C5_11
REMARK    4  A    between atoms: C7_14  and  O3_15
REMARK    5  A    between atoms: O3_15  and  C8_16
REMARK                            x       y       z     vdW  Elec       q    Type
REMARK                         _______ _______ _______ _____ _____    ______ ____
ROOT
ATOM      1  N1  UNL     1      -0.534   0.866   1.623  0.00  0.00    +0.000 N 
ATOM      2  H3  UNL     1      -0.540   1.806   2.154  0.00  0.00    +0.000 HD
ENDROOT
BRANCH   1   3
ATOM      3  C5  UNL     1       0.541   0.712   0.750  0.00  0.00    +0.000 A 
ATOM      4  C6  UNL     1       1.825   0.694   1.341  0.00  0.00    +0.000 A 
ATOM      5  N2  UNL     1       2.902   0.514   0.590  0.00  0.00    +0.000 NA
ATOM      6  C7  UNL     1       2.880   0.340  -0.735  0.00  0.00    +0.000 A 
ATOM      7  C9  UNL     1       1.631   0.356  -1.327  0.00  0.00    +0.000 A 
ATOM      8  C10 UNL     1       0.470   0.539  -0.606  0.00  0.00    +0.000 A 
BRANCH   6   9
ATOM      9  O3  UNL     1       3.995   0.151  -1.523  0.00  0.00    +0.000 OA
ATOM     10  C8  UNL     1       5.296   0.126  -0.976  0.00  0.00    +0.000 C 
ENDBRANCH   6   9
ENDBRANCH   1   3
BRANCH   1  11
ATOM     11  S2  UNL     1      -1.773  -0.220   1.922  0.00  0.00    +0.000 S 
ATOM     12  O1  UNL     1      -1.241  -1.560   2.442  0.00  0.00    +0.000 OA
ATOM     13  O2  UNL     1      -2.748   0.302   2.976  0.00  0.00    +0.000 OA
BRANCH  11  18
ATOM     14 CL1  UNL     1      -4.348  -2.071  -3.267  0.00  0.00    +0.000 Cl
ATOM     15  C1  UNL     1      -3.967  -1.392  -1.726  0.00  0.00    +0.000 A 
ATOM     16  C2  UNL     1      -4.675  -0.684  -0.832  0.00  0.00    +0.000 A 
ATOM     17  C3  UNL     1      -4.106  -0.276   0.313  0.00  0.00    +0.000 A 
ATOM     18  C4  UNL     1      -2.767  -0.618   0.528  0.00  0.00    +0.000 A 
ATOM     19  S1  UNL     1      -2.341  -1.518  -0.914  0.00  0.00    +0.000 S 
ENDBRANCH  11  18
ENDBRANCH   1  11
TORSDOF 4
