REMARK  Name = ./3D_structures\o46_MMV1782115_3D.pdb
REMARK  3 active torsions:
REMARK  status: ('A' for Active; 'I' for Inactive)
REMARK    1  A    between atoms: C3_5  and  C4_6
REMARK    2  A    between atoms: C11_15  and  O2_17
REMARK    3  A    between atoms: O2_17  and  C13_18
REMARK                            x       y       z     vdW  Elec       q    Type
REMARK                         _______ _______ _______ _____ _____    ______ ____
ROOT
ATOM      1  S1  UNL     1      -0.100  -3.003   0.215  0.00  0.00    +0.000 S 
ATOM      2  C1  UNL     1      -1.284  -1.745   0.413  0.00  0.00    +0.000 A 
ATOM      3  C2  UNL     1      -0.591  -0.550   0.221  0.00  0.00    +0.000 A 
ATOM      4  N1  UNL     1      -1.301   0.716   0.321  0.00  0.00    +0.000 N 
ATOM      5  C3  UNL     1      -2.652   1.089   0.390  0.00  0.00    +0.000 C 
ATOM      6  C4  UNL     1      -2.817   2.378  -0.436  0.00  0.00    +0.000 C 
ATOM      7  C5  UNL     1      -3.725   0.180  -0.005  0.00  0.00    +0.000 C 
ATOM      8  N2  UNL     1      -3.761  -1.102   0.621  0.00  0.00    +0.000 N 
ATOM      9  C6  UNL     1      -2.688  -2.019   0.719  0.00  0.00    +0.000 C 
ATOM     10  O1  UNL     1      -2.901  -3.198   1.099  0.00  0.00    +0.000 OA
ATOM     11  C7  UNL     1       0.723  -0.673  -0.050  0.00  0.00    +0.000 A 
ATOM     12  C8  UNL     1       1.299  -1.878  -0.124  0.00  0.00    +0.000 A 
ATOM     13  C9  UNL     1       2.631  -2.138  -0.393  0.00  0.00    +0.000 A 
ATOM     14  C10 UNL     1       3.503  -1.076  -0.618  0.00  0.00    +0.000 A 
ATOM     15  C11 UNL     1       2.946   0.175  -0.550  0.00  0.00    +0.000 A 
ATOM     16  C12 UNL     1       1.639   0.395  -0.285  0.00  0.00    +0.000 A 
ATOM     17  H1  UNL     1      -0.651   1.534   0.351  0.00  0.00    +0.000 HD
ATOM     18  H8  UNL     1      -4.651  -1.428   1.061  0.00  0.00    +0.000 HD
ENDROOT
BRANCH  15  19
ATOM     19  O2  UNL     1       3.794   1.280  -0.771  0.00  0.00    +0.000 OA
ATOM     20  C13 UNL     1       5.161   1.060  -1.048  0.00  0.00    +0.000 C 
ENDBRANCH  15  19
TORSDOF 1
