REMARK  Name = ./3D_structures\o47_MMV1782114_3D.pdb
REMARK  3 active torsions:
REMARK  status: ('A' for Active; 'I' for Inactive)
REMARK    1  A    between atoms: C1_2  and  C2_5
REMARK    2  A    between atoms: C5_8  and  C8_11
REMARK    3  A    between atoms: N1_13  and  N2_14
REMARK                            x       y       z     vdW  Elec       q    Type
REMARK                         _______ _______ _______ _____ _____    ______ ____
ROOT
ATOM      1  C8  UNL     1       1.862   0.199   0.197  0.00  0.00    +0.000 C 
ATOM      2  O1  UNL     1       1.232   0.533   1.238  0.00  0.00    +0.000 OA
ATOM      3  N1  UNL     1       1.018  -0.034  -0.943  0.00  0.00    +0.000 N 
ATOM      4  H5  UNL     1       1.460  -0.277  -1.840  0.00  0.00    +0.000 HD
ENDROOT
BRANCH   3   5
ATOM      5  N2  UNL     1      -0.389   0.080  -0.807  0.00  0.00    +0.000 N 
ATOM      6  C9  UNL     1      -1.266  -1.062  -0.666  0.00  0.00    +0.000 C 
ATOM      7  O2  UNL     1      -1.041  -2.189  -1.146  0.00  0.00    +0.000 OA
ATOM      8  C10 UNL     1      -2.396  -0.623   0.114  0.00  0.00    +0.000 C 
ATOM      9  C11 UNL     1      -3.736  -1.097  -0.372  0.00  0.00    +0.000 C 
ATOM     10  C12 UNL     1      -4.146  -0.408  -1.649  0.00  0.00    +0.000 C 
ATOM     11  C13 UNL     1      -4.123   0.919  -1.573  0.00  0.00    +0.000 C 
ATOM     12  C14 UNL     1      -3.691   1.450  -0.252  0.00  0.00    +0.000 C 
ATOM     13  C15 UNL     1      -4.722   0.929   0.749  0.00  0.00    +0.000 C 
ATOM     14  C16 UNL     1      -5.906   0.191   0.305  0.00  0.00    +0.000 C 
ATOM     15  C17 UNL     1      -4.737  -0.625   0.671  0.00  0.00    +0.000 C 
ATOM     16  C18 UNL     1      -2.374   0.885   0.144  0.00  0.00    +0.000 C 
ATOM     17  C19 UNL     1      -1.238   1.211  -0.765  0.00  0.00    +0.000 C 
ATOM     18  O3  UNL     1      -1.017   2.294  -1.407  0.00  0.00    +0.000 OA
ENDBRANCH   3   5
BRANCH   1  22
ATOM     19  C2  UNL     1       6.059  -0.343   0.349  0.00  0.00    +0.000 A 
ATOM     20  C3  UNL     1       5.293  -0.175   1.485  0.00  0.00    +0.000 A 
ATOM     21  C4  UNL     1       3.955   0.015   1.381  0.00  0.00    +0.000 A 
ATOM     22  C5  UNL     1       3.284   0.054   0.164  0.00  0.00    +0.000 A 
ATOM     23  C6  UNL     1       4.033  -0.109  -0.964  0.00  0.00    +0.000 A 
ATOM     24  C7  UNL     1       5.413  -0.306  -0.877  0.00  0.00    +0.000 A 
BRANCH  19  26
ATOM     25  F1  UNL     1       7.715  -1.363   1.654  0.00  0.00    +0.000 F 
ATOM     26  C1  UNL     1       7.505  -0.585   0.504  0.00  0.00    +0.000 C 
ATOM     27  F2  UNL     1       7.985  -1.364  -0.534  0.00  0.00    +0.000 F 
ATOM     28  F3  UNL     1       8.234   0.562   0.662  0.00  0.00    +0.000 F 
ENDBRANCH  19  26
ENDBRANCH   1  22
TORSDOF 3
