REMARK  Name = ./3D_structures\o48_MMV018362_3D.pdb
REMARK  3 active torsions:
REMARK  status: ('A' for Active; 'I' for Inactive)
REMARK    1  A    between atoms: C1_2  and  O2_3
REMARK    2  A    between atoms: C1_2  and  C2_4
REMARK    3  A    between atoms: C4_6  and  C11_14
REMARK                            x       y       z     vdW  Elec       q    Type
REMARK                         _______ _______ _______ _____ _____    ______ ____
ROOT
ATOM      1  C2  UNL     1      -1.349   0.233   1.269  0.00  0.00    +0.000 A 
ATOM      2  C3  UNL     1       0.053   0.219   1.114  0.00  0.00    +0.000 A 
ATOM      3  C4  UNL     1       0.701  -0.026  -0.057  0.00  0.00    +0.000 A 
ATOM      4  N1  UNL     1      -0.035  -0.275  -1.150  0.00  0.00    +0.000 NA
ATOM      5  C5  UNL     1      -1.392  -0.275  -1.060  0.00  0.00    +0.000 A 
ATOM      6  C6  UNL     1      -2.115  -0.536  -2.201  0.00  0.00    +0.000 A 
ATOM      7  C7  UNL     1      -3.491  -0.555  -2.187  0.00  0.00    +0.000 A 
ATOM      8  C8  UNL     1      -4.154  -0.309  -1.012  0.00  0.00    +0.000 A 
ATOM      9  C9  UNL     1      -3.453  -0.040   0.168  0.00  0.00    +0.000 A 
ATOM     10  C10 UNL     1      -2.075  -0.029   0.116  0.00  0.00    +0.000 A 
ENDROOT
BRANCH   3  11
ATOM     11  C11 UNL     1       2.161  -0.020  -0.126  0.00  0.00    +0.000 A 
ATOM     12  C12 UNL     1       2.735  -0.282  -1.367  0.00  0.00    +0.000 A 
ATOM     13  C13 UNL     1       4.094  -0.286  -1.475  0.00  0.00    +0.000 A 
ATOM     14  C14 UNL     1       4.929  -0.043  -0.415  0.00  0.00    +0.000 A 
ATOM     15  C15 UNL     1       4.373   0.217   0.818  0.00  0.00    +0.000 A 
ATOM     16  C16 UNL     1       2.981   0.225   0.949  0.00  0.00    +0.000 A 
ENDBRANCH   3  11
BRANCH   1  18
ATOM     17  O1  UNL     1      -1.128   0.680   3.539  0.00  0.00    +0.000 OA
ATOM     18  C1  UNL     1      -1.929   0.514   2.557  0.00  0.00    +0.000 C 
BRANCH  18  19
ATOM     19  O2  UNL     1      -3.243   0.627   2.859  0.00  0.00    +0.000 OA
ATOM     20  H1  UNL     1      -3.612   1.390   3.419  0.00  0.00    +0.000 HD
ENDBRANCH  18  19
ENDBRANCH   1  18
TORSDOF 3
