REMARK  Name = ./3D_structures\o49_MMV1634556_3D.pdb
REMARK  11 active torsions:
REMARK  status: ('A' for Active; 'I' for Inactive)
REMARK    1  A    between atoms: C1_2  and  C2_5
REMARK    2  A    between atoms: C3_7  and  C4_10
REMARK    3  A    between atoms: C6_12  and  C19_28
REMARK    4  A    between atoms: C7_13  and  O2_14
REMARK    5  A    between atoms: O2_14  and  C8_15
REMARK    6  A    between atoms: C8_15  and  C9_16
REMARK    7  A    between atoms: C9_16  and  C10_17
REMARK    8  A    between atoms: C10_17  and  C11_18
REMARK    9  A    between atoms: C13_20  and  C14_23
REMARK   10  A    between atoms: C14_23  and  C15_24
REMARK   11  A    between atoms: C16_25  and  C18_27
REMARK                            x       y       z     vdW  Elec       q    Type
REMARK                         _______ _______ _______ _____ _____    ______ ____
ROOT
ATOM      1  C4  UNL     1      -3.863   0.518   0.185  0.00  0.00    +0.000 A 
ATOM      2  C5  UNL     1      -3.093  -0.607   0.333  0.00  0.00    +0.000 A 
ATOM      3  C6  UNL     1      -1.683  -0.551   0.437  0.00  0.00    +0.000 A 
ATOM      4  C7  UNL     1      -1.033   0.625   0.394  0.00  0.00    +0.000 A 
ATOM      5  C16 UNL     1      -1.815   1.796   0.244  0.00  0.00    +0.000 A 
ATOM      6  C17 UNL     1      -3.184   1.717   0.144  0.00  0.00    +0.000 A 
ATOM      7  C18 UNL     1      -1.161   3.129   0.235  0.00  0.00    +0.000 C 
ATOM      8  C19 UNL     1      -0.949  -1.844   0.625  0.00  0.00    +0.000 C 
ENDROOT
BRANCH   1  11
ATOM      9  C2  UNL     1      -7.417  -0.102  -0.034  0.00  0.00    +0.000 C 
ATOM     10  N1  UNL     1      -6.141  -0.553   0.108  0.00  0.00    +0.000 NA
ATOM     11  C3  UNL     1      -5.304   0.497   0.075  0.00  0.00    +0.000 C 
ATOM     12  N2  UNL     1      -6.080   1.571  -0.085  0.00  0.00    +0.000 NA
ATOM     13  O1  UNL     1      -7.324   1.197  -0.147  0.00  0.00    +0.000 OA
BRANCH   9  15
ATOM     14  F1  UNL     1      -8.372  -2.228   0.140  0.00  0.00    +0.000 F 
ATOM     15  C1  UNL     1      -8.666  -0.880  -0.060  0.00  0.00    +0.000 C 
ATOM     16  F2  UNL     1      -9.502  -0.487   0.950  0.00  0.00    +0.000 F 
ATOM     17  F3  UNL     1      -9.310  -0.822  -1.275  0.00  0.00    +0.000 F 
ENDBRANCH   9  15
ENDBRANCH   1  11
BRANCH   4  18
ATOM     18  O2  UNL     1       0.324   0.783   0.486  0.00  0.00    +0.000 OA
BRANCH  18  19
ATOM     19  C8  UNL     1       1.323   0.812  -0.433  0.00  0.00    +0.000 C 
BRANCH  19  20
ATOM     20  C9  UNL     1       1.724  -0.369  -1.237  0.00  0.00    +0.000 C 
BRANCH  20  21
ATOM     21  C10 UNL     1       2.361  -1.502  -0.512  0.00  0.00    +0.000 C 
BRANCH  21  22
ATOM     22  C11 UNL     1       3.611  -0.982   0.175  0.00  0.00    +0.000 A 
ATOM     23  C12 UNL     1       4.858  -0.897  -0.410  0.00  0.00    +0.000 A 
ATOM     24  C13 UNL     1       5.727  -0.376   0.545  0.00  0.00    +0.000 A 
ATOM     25  N3  UNL     1       4.972  -0.178   1.634  0.00  0.00    +0.000 NA
ATOM     26  O3  UNL     1       3.729  -0.544   1.387  0.00  0.00    +0.000 OA
BRANCH  24  27
ATOM     27  C14 UNL     1       7.166  -0.086   0.364  0.00  0.00    +0.000 C 
ATOM     28  C15 UNL     1       7.573  -0.355  -1.093  0.00  0.00    +0.000 C 
ENDBRANCH  24  27
ENDBRANCH  21  22
ENDBRANCH  20  21
ENDBRANCH  19  20
ENDBRANCH  18  19
ENDBRANCH   4  18
TORSDOF 8
