REMARK  Name = ./3D_structures\o4_MMV1580800_3D.pdb
REMARK  4 active torsions:
REMARK  status: ('A' for Active; 'I' for Inactive)
REMARK    1  A    between atoms: C2_3  and  O1_4
REMARK    2  A    between atoms: O1_4  and  C3_5
REMARK    3  A    between atoms: C4_6  and  C5_7
REMARK    4  A    between atoms: C7_10  and  N2_11
REMARK                            x       y       z     vdW  Elec       q    Type
REMARK                         _______ _______ _______ _____ _____    ______ ____
ROOT
ATOM      1  C3  UNL     1      -0.718  -0.451   0.102  0.00  0.00    +0.000 A 
ATOM      2  C4  UNL     1      -1.876  -1.228   0.081  0.00  0.00    +0.000 A 
ATOM      3  C6  UNL     1      -2.958  -0.887  -0.703  0.00  0.00    +0.000 A 
ATOM      4  C7  UNL     1      -2.936   0.248  -1.504  0.00  0.00    +0.000 A 
ATOM      5  C8  UNL     1      -1.795   1.017  -1.485  0.00  0.00    +0.000 A 
ATOM      6  C9  UNL     1      -0.734   0.663  -0.702  0.00  0.00    +0.000 A 
ENDROOT
BRANCH   4   7
ATOM      7  N2  UNL     1      -4.064   0.584  -2.307  0.00  0.00    +0.000 N 
ATOM      8  O2  UNL     1      -5.186  -0.185  -2.317  0.00  0.00    +0.000 OA
ATOM      9  O3  UNL     1      -4.030   1.603  -3.018  0.00  0.00    +0.000 OA
ENDBRANCH   4   7
BRANCH   2  10
ATOM     10  C5  UNL     1      -1.926  -2.406   0.898  0.00  0.00    +0.000 C 
ATOM     11  N1  UNL     1      -1.982  -3.370   1.549  0.00  0.00    +0.000 NA
ENDBRANCH   2  10
BRANCH   1  12
ATOM     12  O1  UNL     1       0.310  -0.848   0.896  0.00  0.00    +0.000 OA
BRANCH  12  15
ATOM     13 CL1  UNL     1       1.954  -0.850  -1.586  0.00  0.00    +0.000 Cl
ATOM     14  C1  UNL     1       2.406  -0.232  -0.007  0.00  0.00    +0.000 A 
ATOM     15  C2  UNL     1       1.543  -0.300   1.074  0.00  0.00    +0.000 A 
ATOM     16  C10 UNL     1       2.003   0.199   2.277  0.00  0.00    +0.000 A 
ATOM     17  C11 UNL     1       3.268   0.733   2.357  0.00  0.00    +0.000 A 
ATOM     18  C12 UNL     1       4.127   0.804   1.288  0.00  0.00    +0.000 A 
ATOM     19  C13 UNL     1       3.680   0.309   0.084  0.00  0.00    +0.000 A 
ENDBRANCH  12  15
ENDBRANCH   1  12
TORSDOF 4
