REMARK  Name = ./3D_structures\o50_MMV1634401_3D.pdb
REMARK  15 active torsions:
REMARK  status: ('A' for Active; 'I' for Inactive)
REMARK    1  A    between atoms: O1_1  and  C1_2
REMARK    2  A    between atoms: O1_1  and  C9_10
REMARK    3  A    between atoms: C2_3  and  C8_9
REMARK    4  A    between atoms: C5_6  and  C7_8
REMARK    5  A    between atoms: C9_10  and  C10_11
REMARK    6  A    between atoms: C10_11  and  C11_12
REMARK    7  A    between atoms: C11_12  and  C12_13
REMARK    8  A    between atoms: C12_13  and  C13_14
REMARK    9  A    between atoms: C13_14  and  C14_15
REMARK   10  A    between atoms: C14_15  and  N1_16
REMARK   11  A    between atoms: C15_17  and  C20_25
REMARK   12  A    between atoms: C16_18  and  O2_19
REMARK   13  A    between atoms: C17_20  and  O3_21
REMARK   14  A    between atoms: C18_22  and  O4_24
REMARK   15  A    between atoms: C20_25  and  O5_26
REMARK                            x       y       z     vdW  Elec       q    Type
REMARK                         _______ _______ _______ _____ _____    ______ ____
ROOT
ATOM      1  C14 UNL     1      -2.086   0.648  -0.298  0.00  0.00    +0.000 C 
ENDROOT
BRANCH   1   2
ATOM      2  N1  UNL     1      -3.200  -0.200  -0.523  0.00  0.00    +0.000 NA
ATOM      3  C15 UNL     1      -3.936  -0.589   0.624  0.00  0.00    +0.000 C 
ATOM      4  C16 UNL     1      -5.115   0.316   0.921  0.00  0.00    +0.000 C 
ATOM      5  C17 UNL     1      -5.988   0.540  -0.265  0.00  0.00    +0.000 C 
ATOM      6  C18 UNL     1      -5.159   0.984  -1.419  0.00  0.00    +0.000 C 
ATOM      7  C19 UNL     1      -3.974   0.097  -1.685  0.00  0.00    +0.000 C 
BRANCH   4   8
ATOM      8  O2  UNL     1      -4.595   1.546   1.328  0.00  0.00    +0.000 OA
ATOM      9  H24 UNL     1      -4.318   1.534   2.277  0.00  0.00    +0.000 HD
ENDBRANCH   4   8
BRANCH   5  10
ATOM     10  O3  UNL     1      -6.824  -0.530  -0.566  0.00  0.00    +0.000 OA
ATOM     11  H26 UNL     1      -7.227  -0.312  -1.465  0.00  0.00    +0.000 HD
ENDBRANCH   5  10
BRANCH   6  12
ATOM     12  O4  UNL     1      -4.798   2.313  -1.231  0.00  0.00    +0.000 OA
ATOM     13  H30 UNL     1      -3.917   2.525  -1.620  0.00  0.00    +0.000 HD
ENDBRANCH   6  12
BRANCH   3  14
ATOM     14  C20 UNL     1      -4.374  -2.041   0.513  0.00  0.00    +0.000 C 
BRANCH  14  15
ATOM     15  O5  UNL     1      -5.089  -2.358   1.665  0.00  0.00    +0.000 OA
ATOM     16  H33 UNL     1      -5.226  -3.353   1.747  0.00  0.00    +0.000 HD
ENDBRANCH  14  15
ENDBRANCH   3  14
ENDBRANCH   1   2
BRANCH   1  17
ATOM     17  C13 UNL     1      -0.966  -0.060   0.430  0.00  0.00    +0.000 C 
BRANCH  17  18
ATOM     18  C12 UNL     1       0.142   0.993   0.583  0.00  0.00    +0.000 C 
BRANCH  18  19
ATOM     19  C11 UNL     1       1.300   0.372   1.295  0.00  0.00    +0.000 C 
BRANCH  19  20
ATOM     20  C10 UNL     1       2.436   1.368   1.488  0.00  0.00    +0.000 C 
BRANCH  20  21
ATOM     21  C9  UNL     1       2.906   1.853   0.145  0.00  0.00    +0.000 C 
BRANCH  21  22
ATOM     22  O1  UNL     1       3.379   0.902  -0.703  0.00  0.00    +0.000 OA
BRANCH  22  23
ATOM     23  C1  UNL     1       4.464   0.086  -0.617  0.00  0.00    +0.000 A 
ATOM     24  C2  UNL     1       4.628  -0.809  -1.691  0.00  0.00    +0.000 A 
ATOM     25  C3  UNL     1       5.684  -1.656  -1.688  0.00  0.00    +0.000 A 
ATOM     26  C4  UNL     1       6.607  -1.670  -0.660  0.00  0.00    +0.000 A 
ATOM     27  C5  UNL     1       6.479  -0.812   0.402  0.00  0.00    +0.000 A 
ATOM     28  C6  UNL     1       5.393   0.060   0.398  0.00  0.00    +0.000 A 
ATOM     29  C7  UNL     1       7.460  -0.802   1.526  0.00  0.00    +0.000 C 
ATOM     30  C8  UNL     1       3.658  -0.829  -2.817  0.00  0.00    +0.000 C 
ENDBRANCH  22  23
ENDBRANCH  21  22
ENDBRANCH  20  21
ENDBRANCH  19  20
ENDBRANCH  18  19
ENDBRANCH  17  18
ENDBRANCH   1  17
TORSDOF 13
