REMARK  Name = ./3D_structures\o51_MMV1634394_3D.pdb
REMARK  7 active torsions:
REMARK  status: ('A' for Active; 'I' for Inactive)
REMARK    1  A    between atoms: S1_1  and  C1_4
REMARK    2  A    between atoms: S1_1  and  C19_26
REMARK    3  A    between atoms: C4_7  and  O3_8
REMARK    4  A    between atoms: O3_8  and  C5_9
REMARK    5  A    between atoms: C5_9  and  C6_10
REMARK    6  A    between atoms: C6_10  and  C7_11
REMARK    7  A    between atoms: C11_18  and  C12_19
REMARK                            x       y       z     vdW  Elec       q    Type
REMARK                         _______ _______ _______ _____ _____    ______ ____
ROOT
ATOM      1  C6  UNL     1       0.625  -1.144  -0.189  0.00  0.00    +0.000 C 
ENDROOT
BRANCH   1   2
ATOM      2  C7  UNL     1      -0.810  -0.747  -0.139  0.00  0.00    +0.000 C 
ATOM      3  C8  UNL     1      -1.102   0.714  -0.255  0.00  0.00    +0.000 C 
ATOM      4  C9  UNL     1      -2.544   0.794  -0.781  0.00  0.00    +0.000 C 
ATOM      5  N1  UNL     1      -3.389   0.037   0.118  0.00  0.00    +0.000 N 
ATOM      6  C10 UNL     1      -4.771   0.438   0.154  0.00  0.00    +0.000 A 
ATOM      7  N2  UNL     1      -5.233   1.481  -0.565  0.00  0.00    +0.000 NA
ATOM      8  N3  UNL     1      -6.493   1.854  -0.541  0.00  0.00    +0.000 NA
ATOM      9  C11 UNL     1      -7.422   1.228   0.202  0.00  0.00    +0.000 A 
ATOM     10  C12 UNL     1      -8.850   1.637   0.241  0.00  0.00    +0.000 C 
ATOM     11  C13 UNL     1      -6.972   0.153   0.951  0.00  0.00    +0.000 A 
ATOM     12  C14 UNL     1      -5.655  -0.254   0.939  0.00  0.00    +0.000 A 
ATOM     13  C15 UNL     1      -2.976  -1.040   0.947  0.00  0.00    +0.000 C 
ATOM     14  C16 UNL     1      -1.514  -1.247   1.105  0.00  0.00    +0.000 C 
ENDBRANCH   1   2
BRANCH   1  15
ATOM     15  C5  UNL     1       1.229  -0.736  -1.503  0.00  0.00    +0.000 C 
BRANCH  15  16
ATOM     16  O3  UNL     1       2.549  -1.082  -1.621  0.00  0.00    +0.000 OA
BRANCH  16  20
ATOM     17  C1  UNL     1       6.179  -0.270   0.171  0.00  0.00    +0.000 A 
ATOM     18  C2  UNL     1       5.032   0.361   0.623  0.00  0.00    +0.000 A 
ATOM     19  C3  UNL     1       3.801   0.127   0.061  0.00  0.00    +0.000 A 
ATOM     20  C4  UNL     1       3.686  -0.751  -0.974  0.00  0.00    +0.000 A 
ATOM     21  C17 UNL     1       4.857  -1.385  -1.425  0.00  0.00    +0.000 A 
ATOM     22  C18 UNL     1       6.095  -1.167  -0.880  0.00  0.00    +0.000 A 
BRANCH  17  23
ATOM     23  S1  UNL     1       7.729   0.035   0.891  0.00  0.00    +0.000 S 
ATOM     24  O1  UNL     1       8.599  -1.179   0.830  0.00  0.00    +0.000 OA
ATOM     25  O2  UNL     1       7.505   0.409   2.325  0.00  0.00    +0.000 OA
ATOM     26  C19 UNL     1       8.509   1.377   0.052  0.00  0.00    +0.000 C 
ENDBRANCH  17  23
ENDBRANCH  16  20
ENDBRANCH  15  16
ENDBRANCH   1  15
TORSDOF 5
