REMARK  Name = ./3D_structures\o52_MMV1633964_3D.pdb
REMARK  5 active torsions:
REMARK  status: ('A' for Active; 'I' for Inactive)
REMARK    1  A    between atoms: C1_2  and  C2_5
REMARK    2  A    between atoms: C4_7  and  C8_11
REMARK    3  A    between atoms: N1_13  and  C9_14
REMARK    4  A    between atoms: C9_14  and  C10_15
REMARK    5  A    between atoms: C10_15  and  N2_16
REMARK                            x       y       z     vdW  Elec       q    Type
REMARK                         _______ _______ _______ _____ _____    ______ ____
ROOT
ATOM      1  C8  UNL     1       1.743   0.841  -0.748  0.00  0.00    +0.000 C 
ATOM      2  O1  UNL     1       1.396   1.582  -1.692  0.00  0.00    +0.000 OA
ATOM      3  N1  UNL     1       0.743   0.091  -0.068  0.00  0.00    +0.000 N 
ATOM      4  H5  UNL     1       0.989  -0.553   0.704  0.00  0.00    +0.000 HD
ENDROOT
BRANCH   1   7
ATOM      5  C2  UNL     1       5.206  -0.477  -0.095  0.00  0.00    +0.000 A 
ATOM      6  C3  UNL     1       3.909  -0.361  -0.614  0.00  0.00    +0.000 A 
ATOM      7  C4  UNL     1       3.098   0.684  -0.276  0.00  0.00    +0.000 A 
ATOM      8  C5  UNL     1       3.574   1.666   0.611  0.00  0.00    +0.000 A 
ATOM      9  C6  UNL     1       4.846   1.559   1.127  0.00  0.00    +0.000 A 
ATOM     10  C7  UNL     1       5.658   0.497   0.777  0.00  0.00    +0.000 A 
BRANCH   5  12
ATOM     11  F1  UNL     1       5.526  -2.405  -1.360  0.00  0.00    +0.000 F 
ATOM     12  C1  UNL     1       6.136  -1.574  -0.421  0.00  0.00    +0.000 C 
ATOM     13  F2  UNL     1       7.336  -1.112  -0.880  0.00  0.00    +0.000 F 
ATOM     14  F3  UNL     1       6.277  -2.332   0.729  0.00  0.00    +0.000 F 
ENDBRANCH   5  12
ENDBRANCH   1   7
BRANCH   3  15
ATOM     15  C9  UNL     1      -0.649   0.235  -0.463  0.00  0.00    +0.000 C 
BRANCH  15  16
ATOM     16  C10 UNL     1      -1.495  -0.662   0.445  0.00  0.00    +0.000 C 
BRANCH  16  17
ATOM     17  N2  UNL     1      -2.884  -0.498   0.182  0.00  0.00    +0.000 NA
ATOM     18  C11 UNL     1      -3.367   0.819   0.617  0.00  0.00    +0.000 C 
ATOM     19  C12 UNL     1      -4.859   0.806   0.625  0.00  0.00    +0.000 C 
ATOM     20  C13 UNL     1      -5.342  -0.553   0.187  0.00  0.00    +0.000 C 
ATOM     21  C14 UNL     1      -4.789  -0.774  -1.229  0.00  0.00    +0.000 C 
ATOM     22  C15 UNL     1      -3.272  -0.672  -1.206  0.00  0.00    +0.000 C 
ENDBRANCH  16  17
ENDBRANCH  15  16
ENDBRANCH   3  15
TORSDOF 5
