REMARK  Name = ./3D_structures\o53_MMV1593516_3D.pdb
REMARK  5 active torsions:
REMARK  status: ('A' for Active; 'I' for Inactive)
REMARK    1  A    between atoms: C2_3  and  N5_18
REMARK    2  A    between atoms: C3_5  and  C4_6
REMARK    3  A    between atoms: N5_18  and  C12_19
REMARK    4  A    between atoms: C13_20  and  C14_21
REMARK    5  A    between atoms: C14_21  and  O2_23
REMARK                            x       y       z     vdW  Elec       q    Type
REMARK                         _______ _______ _______ _____ _____    ______ ____
ROOT
ATOM      1  F1  UNL     1      -0.914  -3.079   3.200  0.00  0.00    +0.000 F 
ATOM      2  C1  UNL     1       0.163  -2.645   2.494  0.00  0.00    +0.000 A 
ATOM      3  C2  UNL     1       0.040  -1.565   1.644  0.00  0.00    +0.000 A 
ATOM      4  N1  UNL     1       1.127  -1.133   0.937  0.00  0.00    +0.000 NA
ATOM      5  C3  UNL     1       2.330  -1.719   1.029  0.00  0.00    +0.000 A 
ATOM      6  N4  UNL     1       2.429  -2.771   1.863  0.00  0.00    +0.000 NA
ATOM      7  C11 UNL     1       1.399  -3.241   2.584  0.00  0.00    +0.000 A 
ENDROOT
BRANCH   5   8
ATOM      8  C4  UNL     1       3.493  -1.242   0.268  0.00  0.00    +0.000 A 
ATOM      9  C5  UNL     1       4.766  -1.769   0.254  0.00  0.00    +0.000 A 
ATOM     10  N2  UNL     1       5.569  -1.069  -0.556  0.00  0.00    +0.000 N 
ATOM     11  C6  UNL     1       4.823  -0.059  -1.091  0.00  0.00    +0.000 A 
ATOM     12  C7  UNL     1       3.531  -0.162  -0.581  0.00  0.00    +0.000 A 
ATOM     13  C8  UNL     1       2.577   0.753  -0.972  0.00  0.00    +0.000 A 
ATOM     14  C9  UNL     1       2.878   1.773  -1.861  0.00  0.00    +0.000 A 
ATOM     15  F2  UNL     1       1.962   2.680  -2.258  0.00  0.00    +0.000 F 
ATOM     16  C10 UNL     1       4.172   1.822  -2.330  0.00  0.00    +0.000 A 
ATOM     17  N3  UNL     1       5.099   0.931  -1.949  0.00  0.00    +0.000 NA
ATOM     18  H2  UNL     1       6.578  -1.194  -0.795  0.00  0.00    +0.000 HD
ENDBRANCH   5   8
BRANCH   3  19
ATOM     19  N5  UNL     1      -1.216  -0.941   1.545  0.00  0.00    +0.000 N 
ATOM     20  H6  UNL     1      -2.016  -1.296   2.111  0.00  0.00    +0.000 HD
BRANCH  19  21
ATOM     21  C12 UNL     1      -1.499   0.193   0.689  0.00  0.00    +0.000 C 
ATOM     22  C13 UNL     1      -2.901   0.681   0.821  0.00  0.00    +0.000 C 
ATOM     23  C15 UNL     1      -3.483   1.049  -0.515  0.00  0.00    +0.000 C 
ATOM     24  C16 UNL     1      -2.556   1.859  -1.376  0.00  0.00    +0.000 C 
ATOM     25  C17 UNL     1      -1.185   1.208  -1.497  0.00  0.00    +0.000 C 
ATOM     26  C18 UNL     1      -1.249  -0.119  -0.767  0.00  0.00    +0.000 C 
ATOM     27  C19 UNL     1      -2.370  -0.908  -1.405  0.00  0.00    +0.000 C 
ATOM     28  C20 UNL     1      -3.712  -0.273  -1.259  0.00  0.00    +0.000 C 
BRANCH  22  29
ATOM     29  C14 UNL     1      -3.010   1.842   1.743  0.00  0.00    +0.000 C 
ATOM     30  O1  UNL     1      -1.957   2.260   2.282  0.00  0.00    +0.000 OA
BRANCH  29  31
ATOM     31  O2  UNL     1      -4.192   2.484   2.041  0.00  0.00    +0.000 OA
ATOM     32  H9  UNL     1      -4.235   3.496   2.241  0.00  0.00    +0.000 HD
ENDBRANCH  29  31
ENDBRANCH  22  29
ENDBRANCH  19  21
ENDBRANCH   3  19
TORSDOF 5
