REMARK  Name = ./3D_structures\o54_MMV1593513_3D.pdb
REMARK  14 active torsions:
REMARK  status: ('A' for Active; 'I' for Inactive)
REMARK    1  A    between atoms: O1_1  and  C1_2
REMARK    2  A    between atoms: C2_3  and  O2_4
REMARK    3  A    between atoms: C3_5  and  C15_19
REMARK    4  A    between atoms: N1_6  and  C4_7
REMARK    5  A    between atoms: C4_7  and  C5_8
REMARK    6  A    between atoms: C5_8  and  C6_9
REMARK    7  A    between atoms: C6_9  and  C7_10
REMARK    8  A    between atoms: C7_10  and  C8_11
REMARK    9  A    between atoms: C8_11  and  C9_12
REMARK   10  A    between atoms: C9_12  and  C10_13
REMARK   11  A    between atoms: C10_13  and  C11_14
REMARK   12  A    between atoms: C11_14  and  C12_15
REMARK   13  A    between atoms: C14_17  and  O3_18
REMARK   14  A    between atoms: C15_19  and  O4_20
REMARK                            x       y       z     vdW  Elec       q    Type
REMARK                         _______ _______ _______ _____ _____    ______ ____
ROOT
ATOM      1  C1  UNL     1      -3.926   1.268  -0.730  0.00  0.00    +0.000 C 
ATOM      2  C2  UNL     1      -3.704  -0.137  -1.153  0.00  0.00    +0.000 C 
ATOM      3  C3  UNL     1      -2.983  -1.003  -0.159  0.00  0.00    +0.000 C 
ATOM      4  N1  UNL     1      -1.964  -0.320   0.563  0.00  0.00    +0.000 NA
ATOM      5  C13 UNL     1      -2.524   0.759   1.323  0.00  0.00    +0.000 C 
ATOM      6  C14 UNL     1      -3.488   1.641   0.637  0.00  0.00    +0.000 C 
ENDROOT
BRANCH   1   7
ATOM      7  O1  UNL     1      -5.322   1.511  -0.803  0.00  0.00    +0.000 OA
ATOM      8  H1  UNL     1      -5.580   1.946  -1.630  0.00  0.00    +0.000 HD
ENDBRANCH   1   7
BRANCH   2   9
ATOM      9  O2  UNL     1      -2.970  -0.170  -2.363  0.00  0.00    +0.000 OA
ATOM     10  H4  UNL     1      -2.695  -1.113  -2.476  0.00  0.00    +0.000 HD
ENDBRANCH   2   9
BRANCH   6  11
ATOM     11  O3  UNL     1      -3.001   2.975   0.561  0.00  0.00    +0.000 OA
ATOM     12  H28 UNL     1      -2.092   2.946   0.929  0.00  0.00    +0.000 HD
ENDBRANCH   6  11
BRANCH   4  13
ATOM     13  C4  UNL     1      -0.859   0.173  -0.182  0.00  0.00    +0.000 C 
BRANCH  13  14
ATOM     14  C5  UNL     1       0.049  -0.821  -0.779  0.00  0.00    +0.000 C 
BRANCH  14  15
ATOM     15  C6  UNL     1       1.146  -0.146  -1.550  0.00  0.00    +0.000 C 
BRANCH  15  16
ATOM     16  C7  UNL     1       1.945   0.738  -0.629  0.00  0.00    +0.000 C 
BRANCH  16  17
ATOM     17  C8  UNL     1       2.583  -0.012   0.507  0.00  0.00    +0.000 C 
BRANCH  17  18
ATOM     18  C9  UNL     1       3.528  -1.091   0.069  0.00  0.00    +0.000 C 
BRANCH  18  19
ATOM     19  C10 UNL     1       4.677  -0.591  -0.739  0.00  0.00    +0.000 C 
BRANCH  19  20
ATOM     20  C11 UNL     1       5.514   0.402  -0.018  0.00  0.00    +0.000 C 
ATOM     21  C12 UNL     1       6.137  -0.142   1.226  0.00  0.00    +0.000 C 
ENDBRANCH  19  20
ENDBRANCH  18  19
ENDBRANCH  17  18
ENDBRANCH  16  17
ENDBRANCH  15  16
ENDBRANCH  14  15
ENDBRANCH  13  14
ENDBRANCH   4  13
BRANCH   3  22
ATOM     22  C15 UNL     1      -4.016  -1.470   0.855  0.00  0.00    +0.000 C 
BRANCH  22  23
ATOM     23  O4  UNL     1      -5.064  -2.158   0.223  0.00  0.00    +0.000 OA
ATOM     24  H31 UNL     1      -4.703  -2.598  -0.571  0.00  0.00    +0.000 HD
ENDBRANCH  22  23
ENDBRANCH   3  22
TORSDOF 13
