REMARK  Name = ./3D_structures\o55_MMV1593511_3D.pdb
REMARK  12 active torsions:
REMARK  status: ('A' for Active; 'I' for Inactive)
REMARK    1  A    between atoms: C1_1  and  C2_2
REMARK    2  A    between atoms: C2_2  and  C3_3
REMARK    3  A    between atoms: C3_3  and  C4_4
REMARK    4  A    between atoms: C3_3  and  C6_6
REMARK    5  A    between atoms: C4_4  and  C5_5
REMARK    6  A    between atoms: C6_6  and  N1_7
REMARK    7  A    between atoms: C6_6  and  C9_11
REMARK    8  A    between atoms: C7_8  and  C8_10
REMARK    9  A    between atoms: C10_12  and  O2_13
REMARK   10  A    between atoms: C11_14  and  C15_21
REMARK   11  A    between atoms: C13_16  and  N2_17
REMARK   12  A    between atoms: C15_21  and  O4_23
REMARK                            x       y       z     vdW  Elec       q    Type
REMARK                         _______ _______ _______ _____ _____    ______ ____
ROOT
ATOM      1  C9  UNL     1       0.713   0.430   0.059  0.00  0.00    +0.000 C 
ATOM      2  C10 UNL     1       0.859   1.936  -0.062  0.00  0.00    +0.000 C 
ATOM      3  C11 UNL     1       2.339   2.183  -0.328  0.00  0.00    +0.000 C 
ATOM      4  C12 UNL     1       2.974   0.790  -0.381  0.00  0.00    +0.000 C 
ATOM      5  C13 UNL     1       1.793  -0.026  -0.874  0.00  0.00    +0.000 C 
ENDROOT
BRANCH   5   6
ATOM      6  N2  UNL     1       2.020  -1.421  -0.935  0.00  0.00    +0.000 N 
ATOM      7  C14 UNL     1       2.406  -2.195   0.186  0.00  0.00    +0.000 C 
ATOM      8  N3  UNL     1       2.514  -1.594   1.318  0.00  0.00    +0.000 NA
ATOM      9  N4  UNL     1       2.671  -3.609   0.066  0.00  0.00    +0.000 N 
ATOM     10  H24 UNL     1       1.905  -1.924  -1.838  0.00  0.00    +0.000 HD
ATOM     11  H25 UNL     1       2.798  -2.167   2.141  0.00  0.00    +0.000 HD
ATOM     12  H26 UNL     1       3.036  -3.994  -0.835  0.00  0.00    +0.000 HD
ATOM     13  H27 UNL     1       2.514  -4.270   0.839  0.00  0.00    +0.000 HD
ENDBRANCH   5   6
BRANCH   2  14
ATOM     14  O2  UNL     1       0.162   2.323  -1.212  0.00  0.00    +0.000 OA
ATOM     15  H19 UNL     1       0.720   2.940  -1.777  0.00  0.00    +0.000 HD
ENDBRANCH   2  14
BRANCH   3  16
ATOM     16  C15 UNL     1       2.859   2.971   0.793  0.00  0.00    +0.000 C 
ATOM     17  O3  UNL     1       3.790   2.508   1.493  0.00  0.00    +0.000 OA
BRANCH  16  18
ATOM     18  O4  UNL     1       2.359   4.220   1.116  0.00  0.00    +0.000 OA
ATOM     19  H28 UNL     1       2.958   4.963   1.496  0.00  0.00    +0.000 HD
ENDBRANCH  16  18
ENDBRANCH   3  16
BRANCH   1  20
ATOM     20  C6  UNL     1      -0.670   0.005  -0.349  0.00  0.00    +0.000 C 
BRANCH  20  21
ATOM     21  N1  UNL     1      -0.842  -1.408  -0.426  0.00  0.00    +0.000 N 
ATOM     22  C7  UNL     1      -1.135  -2.061  -1.654  0.00  0.00    +0.000 C 
ATOM     23  O1  UNL     1      -1.258  -1.418  -2.739  0.00  0.00    +0.000 OA
ATOM     24  C8  UNL     1      -1.314  -3.537  -1.725  0.00  0.00    +0.000 C 
ATOM     25  H13 UNL     1      -0.759  -2.020   0.418  0.00  0.00    +0.000 HD
ENDBRANCH  20  21
BRANCH  20  26
ATOM     26  C3  UNL     1      -1.708   0.648   0.519  0.00  0.00    +0.000 C 
BRANCH  26  28
ATOM     27  C1  UNL     1      -3.374   0.878  -1.351  0.00  0.00    +0.000 C 
ATOM     28  C2  UNL     1      -3.116   0.430   0.038  0.00  0.00    +0.000 C 
ENDBRANCH  26  28
BRANCH  26  29
ATOM     29  C4  UNL     1      -1.665   0.123   1.952  0.00  0.00    +0.000 C 
ATOM     30  C5  UNL     1      -2.674   0.920   2.762  0.00  0.00    +0.000 C 
ENDBRANCH  26  29
ENDBRANCH  20  26
ENDBRANCH   1  20
TORSDOF 9
