REMARK  Name = ./3D_structures\o56_MMV637306_3D.pdb
REMARK  4 active torsions:
REMARK  status: ('A' for Active; 'I' for Inactive)
REMARK    1  A    between atoms: C1_2  and  N1_3
REMARK    2  A    between atoms: C4_8  and  O2_12
REMARK    3  A    between atoms: C9_15  and  C10_16
REMARK    4  A    between atoms: C10_16  and  O3_17
REMARK                            x       y       z     vdW  Elec       q    Type
REMARK                         _______ _______ _______ _____ _____    ______ ____
ROOT
ATOM      1  N1  UNL     1       0.860   0.196   0.175  0.00  0.00    +0.000 N 
ATOM      2  C2  UNL     1       1.997   0.428  -0.494  0.00  0.00    +0.000 A 
ATOM      3  N2  UNL     1       2.225   0.820  -1.766  0.00  0.00    +0.000 NA
ATOM      4  C3  UNL     1       3.499   0.975  -2.173  0.00  0.00    +0.000 C 
ATOM      5  N3  UNL     1       4.525   0.739  -1.309  0.00  0.00    +0.000 NA
ATOM      6  C4  UNL     1       4.321   0.352  -0.052  0.00  0.00    +0.000 C 
ATOM      7  C5  UNL     1       3.024   0.184   0.394  0.00  0.00    +0.000 A 
ATOM      8  N4  UNL     1       2.502  -0.194   1.596  0.00  0.00    +0.000 NA
ATOM      9  C6  UNL     1       1.165  -0.177   1.431  0.00  0.00    +0.000 A 
ENDROOT
BRANCH   1  11
ATOM     10  O1  UNL     1      -1.388   0.804   0.569  0.00  0.00    +0.000 OA
ATOM     11  C1  UNL     1      -0.475   0.327  -0.367  0.00  0.00    +0.000 C 
ATOM     12  C7  UNL     1      -1.009  -1.086  -0.619  0.00  0.00    +0.000 C 
ATOM     13  C8  UNL     1      -2.494  -0.921  -0.537  0.00  0.00    +0.000 C 
ATOM     14  C9  UNL     1      -2.632   0.460   0.076  0.00  0.00    +0.000 C 
BRANCH  14  15
ATOM     15  C10 UNL     1      -3.704   0.419   1.121  0.00  0.00    +0.000 C 
BRANCH  15  16
ATOM     16  O3  UNL     1      -4.898   0.060   0.478  0.00  0.00    +0.000 OA
ATOM     17  H12 UNL     1      -4.801  -0.851   0.058  0.00  0.00    +0.000 HD
ENDBRANCH  15  16
ENDBRANCH  14  15
ENDBRANCH   1  11
BRANCH   6  18
ATOM     18  O2  UNL     1       5.343   0.101   0.862  0.00  0.00    +0.000 OA
ATOM     19  H4  UNL     1       5.634  -0.866   1.065  0.00  0.00    +0.000 HD
ENDBRANCH   6  18
TORSDOF 4
