REMARK  Name = ./3D_structures\o57_MMV1581377_3D.pdb
REMARK  8 active torsions:
REMARK  status: ('A' for Active; 'I' for Inactive)
REMARK    1  A    between atoms: C4_5  and  N1_6
REMARK    2  A    between atoms: C6_9  and  C7_10
REMARK    3  A    between atoms: C7_10  and  C8_11
REMARK    4  A    between atoms: C8_11  and  C9_12
REMARK    5  A    between atoms: C9_12  and  O2_13
REMARK    6  A    between atoms: C9_12  and  C10_14
REMARK    7  A    between atoms: C16_21  and  C17_22
REMARK    8  A    between atoms: C20_25  and  O3_26
REMARK                            x       y       z     vdW  Elec       q    Type
REMARK                         _______ _______ _______ _____ _____    ______ ____
ROOT
ATOM      1  N1  UNL     1      -1.567  -0.622  -0.597  0.00  0.00    +0.000 N 
ATOM      2  C5  UNL     1      -1.244  -0.522  -1.966  0.00  0.00    +0.000 C 
ATOM      3  O1  UNL     1      -1.847  -1.001  -2.988  0.00  0.00    +0.000 OA
ATOM      4  C6  UNL     1      -0.083   0.266  -1.609  0.00  0.00    +0.000 C 
ATOM      5  C16 UNL     1      -0.894   0.633  -0.407  0.00  0.00    +0.000 C 
ENDROOT
BRANCH   1  10
ATOM      6  F1  UNL     1      -4.332  -4.400   2.432  0.00  0.00    +0.000 F 
ATOM      7  C1  UNL     1      -3.664  -3.483   1.706  0.00  0.00    +0.000 A 
ATOM      8  C2  UNL     1      -3.554  -3.624   0.341  0.00  0.00    +0.000 A 
ATOM      9  C3  UNL     1      -2.865  -2.685  -0.418  0.00  0.00    +0.000 A 
ATOM     10  C4  UNL     1      -2.276  -1.594   0.181  0.00  0.00    +0.000 A 
ATOM     11  C23 UNL     1      -2.380  -1.444   1.546  0.00  0.00    +0.000 A 
ATOM     12  C24 UNL     1      -3.071  -2.381   2.321  0.00  0.00    +0.000 A 
ENDBRANCH   1  10
BRANCH   5  13
ATOM     13  C17 UNL     1      -1.679   1.867  -0.439  0.00  0.00    +0.000 A 
ATOM     14  C18 UNL     1      -1.385   2.853   0.502  0.00  0.00    +0.000 A 
ATOM     15  C19 UNL     1      -2.076   4.036   0.549  0.00  0.00    +0.000 A 
ATOM     16  C20 UNL     1      -3.097   4.278  -0.356  0.00  0.00    +0.000 A 
ATOM     17  C21 UNL     1      -3.369   3.293  -1.275  0.00  0.00    +0.000 A 
ATOM     18  C22 UNL     1      -2.680   2.088  -1.338  0.00  0.00    +0.000 A 
BRANCH  16  19
ATOM     19  O3  UNL     1      -3.798   5.473  -0.315  0.00  0.00    +0.000 OA
ATOM     20  H17 UNL     1      -4.643   5.586   0.251  0.00  0.00    +0.000 HD
ENDBRANCH  16  19
ENDBRANCH   5  13
BRANCH   4  21
ATOM     21  C7  UNL     1       1.207  -0.371  -1.347  0.00  0.00    +0.000 C 
BRANCH  21  22
ATOM     22  C8  UNL     1       1.325  -1.367  -0.264  0.00  0.00    +0.000 C 
BRANCH  22  23
ATOM     23  C9  UNL     1       2.728  -1.932  -0.130  0.00  0.00    +0.000 C 
BRANCH  23  24
ATOM     24  C10 UNL     1       3.744  -0.892   0.140  0.00  0.00    +0.000 A 
ATOM     25  C11 UNL     1       4.579  -0.388  -0.856  0.00  0.00    +0.000 A 
ATOM     26  C12 UNL     1       5.515   0.564  -0.597  0.00  0.00    +0.000 A 
ATOM     27  C13 UNL     1       5.702   1.090   0.652  0.00  0.00    +0.000 A 
ATOM     28  F2  UNL     1       6.631   2.028   0.890  0.00  0.00    +0.000 F 
ATOM     29  C14 UNL     1       4.882   0.604   1.661  0.00  0.00    +0.000 A 
ATOM     30  C15 UNL     1       3.933  -0.360   1.404  0.00  0.00    +0.000 A 
ENDBRANCH  23  24
BRANCH  23  31
ATOM     31  O2  UNL     1       2.805  -2.870   0.895  0.00  0.00    +0.000 OA
ATOM     32  H9  UNL     1       1.934  -2.948   1.349  0.00  0.00    +0.000 HD
ENDBRANCH  23  31
ENDBRANCH  22  23
ENDBRANCH  21  22
ENDBRANCH   4  21
TORSDOF 8
