REMARK  Name = ./3D_structures\o58_MMV002780_3D.pdb
REMARK  8 active torsions:
REMARK  status: ('A' for Active; 'I' for Inactive)
REMARK    1  A    between atoms: C2_4  and  C3_5
REMARK    2  A    between atoms: N1_6  and  C14_20
REMARK    3  A    between atoms: C10_13  and  O3_15
REMARK    4  A    between atoms: O3_15  and  C12_16
REMARK    5  A    between atoms: C18_24  and  O7_29
REMARK    6  A    between atoms: C19_25  and  O6_27
REMARK    7  A    between atoms: O6_27  and  C21_28
REMARK    8  A    between atoms: O7_29  and  C22_30
REMARK                            x       y       z     vdW  Elec       q    Type
REMARK                         _______ _______ _______ _____ _____    ______ ____
ROOT
ATOM      1  C3  UNL     1      -0.662  -0.103   0.315  0.00  0.00    +0.000 C 
ATOM      2  N1  UNL     1      -0.462  -1.596   0.202  0.00  0.00    +0.000 NA
ATOM      3  C4  UNL     1      -0.826  -2.124   1.512  0.00  0.00    +0.000 C 
ATOM      4  C5  UNL     1      -1.926  -1.337   2.179  0.00  0.00    +0.000 C 
ATOM      5  C6  UNL     1      -2.804  -0.688   1.151  0.00  0.00    +0.000 A 
ATOM      6  C7  UNL     1      -4.145  -0.790   1.200  0.00  0.00    +0.000 A 
ATOM      7  C8  UNL     1      -4.905  -0.181   0.214  0.00  0.00    +0.000 A 
ATOM      8  C9  UNL     1      -4.264   0.509  -0.785  0.00  0.00    +0.000 A 
ATOM      9  C10 UNL     1      -2.864   0.593  -0.800  0.00  0.00    +0.000 A 
ATOM     10  C11 UNL     1      -2.087   0.015   0.138  0.00  0.00    +0.000 A 
ATOM     11  O4  UNL     1      -5.244   1.000  -1.611  0.00  0.00    +0.000 OA
ATOM     12  C13 UNL     1      -6.430   0.276  -1.357  0.00  0.00    +0.000 C 
ATOM     13  O5  UNL     1      -6.270  -0.109  -0.005  0.00  0.00    +0.000 OA
ATOM     14  C14 UNL     1      -1.273  -2.120  -0.851  0.00  0.00    +0.000 C 
ENDROOT
BRANCH   1  18
ATOM     15  O1  UNL     1       2.066   3.503  -0.178  0.00  0.00    +0.000 OA
ATOM     16  C1  UNL     1       1.622   2.323  -0.303  0.00  0.00    +0.000 C 
ATOM     17  O2  UNL     1       0.371   1.882  -0.593  0.00  0.00    +0.000 OA
ATOM     18  C2  UNL     1       0.308   0.500  -0.603  0.00  0.00    +0.000 C 
ATOM     19  C15 UNL     1       1.676   0.041  -0.338  0.00  0.00    +0.000 A 
ATOM     20  C16 UNL     1       2.309  -1.197  -0.240  0.00  0.00    +0.000 A 
ATOM     21  C17 UNL     1       3.647  -1.354   0.040  0.00  0.00    +0.000 A 
ATOM     22  C18 UNL     1       4.419  -0.240   0.237  0.00  0.00    +0.000 A 
ATOM     23  C19 UNL     1       3.830   0.997   0.147  0.00  0.00    +0.000 A 
ATOM     24  C20 UNL     1       2.462   1.146  -0.139  0.00  0.00    +0.000 A 
BRANCH  23  25
ATOM     25  O6  UNL     1       4.571   2.142   0.338  0.00  0.00    +0.000 OA
ATOM     26  C21 UNL     1       4.770   2.784   1.566  0.00  0.00    +0.000 C 
ENDBRANCH  23  25
BRANCH  22  27
ATOM     27  O7  UNL     1       5.758  -0.372   0.518  0.00  0.00    +0.000 OA
ATOM     28  C22 UNL     1       6.323  -1.664   0.600  0.00  0.00    +0.000 C 
ENDBRANCH  22  27
ENDBRANCH   1  18
BRANCH   9  29
ATOM     29  O3  UNL     1      -2.330   1.299  -1.835  0.00  0.00    +0.000 OA
ATOM     30  C12 UNL     1      -2.284   2.732  -1.696  0.00  0.00    +0.000 C 
ENDBRANCH   9  29
TORSDOF 4
