REMARK  Name = ./3D_structures\o59_MMV1580801_3D.pdb
REMARK  5 active torsions:
REMARK  status: ('A' for Active; 'I' for Inactive)
REMARK    1  A    between atoms: C4_5  and  C5_6
REMARK    2  A    between atoms: C11_12  and  C17_19
REMARK    3  A    between atoms: C12_13  and  C13_14
REMARK    4  A    between atoms: C17_19  and  C18_20
REMARK    5  A    between atoms: C18_20  and  O2_22
REMARK                            x       y       z     vdW  Elec       q    Type
REMARK                         _______ _______ _______ _____ _____    ______ ____
ROOT
ATOM      1 CL1  UNL     1       5.229   0.006   0.617  0.00  0.00    +0.000 Cl
ATOM      2  C1  UNL     1       3.781  -0.681  -0.078  0.00  0.00    +0.000 A 
ATOM      3  C2  UNL     1       2.524  -0.143   0.120  0.00  0.00    +0.000 A 
ATOM      4  C3  UNL     1       1.378  -0.690  -0.433  0.00  0.00    +0.000 A 
ATOM      5  C4  UNL     1       0.118  -0.134  -0.223  0.00  0.00    +0.000 A 
ATOM      6  C11 UNL     1      -1.027  -0.676  -0.773  0.00  0.00    +0.000 A 
ATOM      7  C12 UNL     1      -0.869  -1.814  -1.554  0.00  0.00    +0.000 A 
ATOM      8  C13 UNL     1      -2.100  -2.385  -2.135  0.00  0.00    +0.000 C 
ATOM      9  N1  UNL     1       0.356  -2.337  -1.745  0.00  0.00    +0.000 NA
ATOM     10  C14 UNL     1       1.475  -1.819  -1.216  0.00  0.00    +0.000 A 
ATOM     11  C15 UNL     1       2.721  -2.374  -1.428  0.00  0.00    +0.000 A 
ATOM     12  C16 UNL     1       3.859  -1.812  -0.865  0.00  0.00    +0.000 A 
ENDROOT
BRANCH   5  13
ATOM     13  C5  UNL     1       0.103   1.065   0.620  0.00  0.00    +0.000 A 
ATOM     14  C6  UNL     1       0.151   1.063   1.977  0.00  0.00    +0.000 A 
ATOM     15  C7  UNL     1       0.130   2.260   2.674  0.00  0.00    +0.000 A 
ATOM     16  C8  UNL     1       0.062   3.486   2.038  0.00  0.00    +0.000 A 
ATOM     17  C9  UNL     1       0.013   3.489   0.660  0.00  0.00    +0.000 A 
ATOM     18  C10 UNL     1       0.034   2.296  -0.030  0.00  0.00    +0.000 A 
ENDBRANCH   5  13
BRANCH   6  19
ATOM     19  C17 UNL     1      -2.305  -0.036  -0.509  0.00  0.00    +0.000 C 
BRANCH  19  20
ATOM     20  C18 UNL     1      -2.899  -0.260   0.786  0.00  0.00    +0.000 C 
ATOM     21  O1  UNL     1      -2.337  -0.982   1.635  0.00  0.00    +0.000 OA
BRANCH  20  22
ATOM     22  O2  UNL     1      -4.104   0.304   1.150  0.00  0.00    +0.000 OA
ATOM     23  H14 UNL     1      -4.372   0.572   2.074  0.00  0.00    +0.000 HD
ENDBRANCH  20  22
ENDBRANCH  19  20
ENDBRANCH   6  19
TORSDOF 4
