REMARK  Name = ./3D_structures\o5_MMV1580503_3D.pdb
REMARK  7 active torsions:
REMARK  status: ('A' for Active; 'I' for Inactive)
REMARK    1  A    between atoms: C6_9  and  C7_10
REMARK    2  A    between atoms: C10_13  and  O2_14
REMARK    3  A    between atoms: O2_14  and  C11_15
REMARK    4  A    between atoms: C11_15  and  C12_16
REMARK    5  A    between atoms: C20_24  and  C21_26
REMARK    6  A    between atoms: C27_32  and  C29_34
REMARK    7  A    between atoms: C27_32  and  C30_35
REMARK                            x       y       z     vdW  Elec       q    Type
REMARK                         _______ _______ _______ _____ _____    ______ ____
ROOT
ATOM      1  O1  UNL     1      -0.915   2.146  -2.821  0.00  0.00    +0.000 OA
ATOM      2  C1  UNL     1      -1.886   1.932  -2.077  0.00  0.00    +0.000 C 
ATOM      3  C2  UNL     1      -1.950   0.639  -1.375  0.00  0.00    +0.000 C 
ATOM      4  C3  UNL     1      -2.918   0.456  -0.520  0.00  0.00    +0.000 C 
ATOM      5  N1  UNL     1      -3.208  -0.711   0.294  0.00  0.00    +0.000 N 
ATOM      6  C4  UNL     1      -2.785  -2.049   0.060  0.00  0.00    +0.000 A 
ATOM      7  C5  UNL     1      -1.888  -2.403  -0.953  0.00  0.00    +0.000 A 
ATOM      8  N2  UNL     1      -1.284  -1.624  -1.949  0.00  0.00    +0.000 N 
ATOM      9  C6  UNL     1      -0.827  -0.259  -1.806  0.00  0.00    +0.000 C 
ATOM     10  C20 UNL     1      -1.174  -2.185  -3.227  0.00  0.00    +0.000 C 
ATOM     11  O3  UNL     1      -0.407  -1.644  -4.112  0.00  0.00    +0.000 OA
ATOM     12  C21 UNL     1      -1.869  -3.387  -3.746  0.00  0.00    +0.000 C 
ATOM     13  C22 UNL     1      -1.534  -3.731  -1.015  0.00  0.00    +0.000 A 
ATOM     14  C23 UNL     1      -2.045  -4.654  -0.127  0.00  0.00    +0.000 A 
ATOM     15  C24 UNL     1      -2.931  -4.282   0.861  0.00  0.00    +0.000 A 
ATOM     16  C25 UNL     1      -3.291  -2.958   0.937  0.00  0.00    +0.000 A 
ATOM     17  C26 UNL     1      -3.978   1.485  -0.190  0.00  0.00    +0.000 C 
ATOM     18  C27 UNL     1      -3.658   2.856  -0.627  0.00  0.00    +0.000 C 
ATOM     19  C28 UNL     1      -2.916   2.966  -1.935  0.00  0.00    +0.000 C 
ATOM     20  C29 UNL     1      -4.987   3.592  -0.847  0.00  0.00    +0.000 C 
ATOM     21  C30 UNL     1      -2.885   3.554   0.498  0.00  0.00    +0.000 C 
ATOM     22  H1  UNL     1      -3.787  -0.560   1.142  0.00  0.00    +0.000 HD
ENDROOT
BRANCH   9  23
ATOM     23  C7  UNL     1       0.390  -0.101  -1.007  0.00  0.00    +0.000 A 
ATOM     24  C8  UNL     1       0.543  -0.547   0.290  0.00  0.00    +0.000 A 
ATOM     25  C9  UNL     1       1.734  -0.366   0.942  0.00  0.00    +0.000 A 
ATOM     26  C10 UNL     1       2.822   0.264   0.336  0.00  0.00    +0.000 A 
ATOM     27  C18 UNL     1       2.693   0.713  -0.950  0.00  0.00    +0.000 A 
ATOM     28  C19 UNL     1       1.497   0.530  -1.601  0.00  0.00    +0.000 A 
BRANCH  26  29
ATOM     29  O2  UNL     1       4.020   0.447   0.991  0.00  0.00    +0.000 OA
BRANCH  29  30
ATOM     30  C11 UNL     1       4.145  -0.016   2.317  0.00  0.00    +0.000 C 
BRANCH  30  31
ATOM     31  C12 UNL     1       5.519   0.289   2.801  0.00  0.00    +0.000 A 
ATOM     32  C13 UNL     1       5.802   1.484   3.456  0.00  0.00    +0.000 A 
ATOM     33  C14 UNL     1       7.075   1.743   3.892  0.00  0.00    +0.000 A 
ATOM     34  C15 UNL     1       8.102   0.850   3.702  0.00  0.00    +0.000 A 
ATOM     35  C16 UNL     1       7.783  -0.330   3.045  0.00  0.00    +0.000 A 
ATOM     36  C17 UNL     1       6.521  -0.608   2.603  0.00  0.00    +0.000 A 
ENDBRANCH  30  31
ENDBRANCH  29  30
ENDBRANCH  26  29
ENDBRANCH   9  23
TORSDOF 4
