REMARK  Name = ./3D_structures\o60_MMV010036_3D.pdb
REMARK  9 active torsions:
REMARK  status: ('A' for Active; 'I' for Inactive)
REMARK    1  A    between atoms: C1_2  and  C2_5
REMARK    2  A    between atoms: N1_3  and  O2_4
REMARK    3  A    between atoms: C3_6  and  C4_7
REMARK    4  A    between atoms: C7_10  and  C8_11
REMARK    5  A    between atoms: C8_11  and  N2_12
REMARK    6  A    between atoms: N2_12  and  C9_13
REMARK    7  A    between atoms: C9_13  and  C10_14
REMARK    8  A    between atoms: C10_14  and  C11_15
REMARK    9  A    between atoms: C12_16  and  C19_24
REMARK                            x       y       z     vdW  Elec       q    Type
REMARK                         _______ _______ _______ _____ _____    ______ ____
ROOT
ATOM      1  C8  UNL     1       0.159  -0.519  -0.612  0.00  0.00    +0.000 C 
ENDROOT
BRANCH   1   5
ATOM      2  C4  UNL     1       4.446  -0.170  -0.740  0.00  0.00    +0.000 A 
ATOM      3  C5  UNL     1       3.706  -0.177  -1.903  0.00  0.00    +0.000 A 
ATOM      4  C6  UNL     1       2.346  -0.287  -1.859  0.00  0.00    +0.000 A 
ATOM      5  C7  UNL     1       1.640  -0.397  -0.655  0.00  0.00    +0.000 A 
ATOM      6  C20 UNL     1       2.414  -0.386   0.483  0.00  0.00    +0.000 A 
ATOM      7  C21 UNL     1       3.777  -0.277   0.454  0.00  0.00    +0.000 A 
BRANCH   2   9
ATOM      8  C2  UNL     1       6.728  -0.032   0.187  0.00  0.00    +0.000 C 
ATOM      9  C3  UNL     1       5.910  -0.048  -0.841  0.00  0.00    +0.000 C 
BRANCH   8  11
ATOM     10  O1  UNL     1       8.716   0.191  -1.113  0.00  0.00    +0.000 OA
ATOM     11  C1  UNL     1       8.182   0.093   0.002  0.00  0.00    +0.000 C 
ATOM     12  N1  UNL     1       9.009   0.102   1.153  0.00  0.00    +0.000 N 
ATOM     13  H1  UNL     1       8.549   0.017   2.107  0.00  0.00    +0.000 HD
BRANCH  12  14
ATOM     14  O2  UNL     1      10.356   0.211   1.113  0.00  0.00    +0.000 OA
ATOM     15  H2  UNL     1      10.791  -0.519   0.600  0.00  0.00    +0.000 HD
ENDBRANCH  12  14
ENDBRANCH   8  11
ENDBRANCH   2   9
ENDBRANCH   1   5
BRANCH   1  16
ATOM     16  N2  UNL     1      -0.429   0.774  -0.639  0.00  0.00    +0.000 NA
ATOM     17  H9  UNL     1       0.038   1.480  -1.196  0.00  0.00    +0.000 HD
BRANCH  16  18
ATOM     18  C9  UNL     1      -1.855   0.809  -0.597  0.00  0.00    +0.000 C 
BRANCH  18  19
ATOM     19  C10 UNL     1      -2.436   0.360   0.720  0.00  0.00    +0.000 C 
BRANCH  19  20
ATOM     20  C11 UNL     1      -3.921   0.450   0.595  0.00  0.00    +0.000 A 
ATOM     21  C12 UNL     1      -4.686   1.582   0.641  0.00  0.00    +0.000 A 
ATOM     22  N3  UNL     1      -5.961   1.209   0.489  0.00  0.00    +0.000 N 
ATOM     23  C13 UNL     1      -6.067  -0.113   0.346  0.00  0.00    +0.000 A 
ATOM     24  C14 UNL     1      -4.788  -0.612   0.410  0.00  0.00    +0.000 A 
ATOM     25  C15 UNL     1      -4.588  -1.969   0.289  0.00  0.00    +0.000 A 
ATOM     26  C16 UNL     1      -5.662  -2.789   0.109  0.00  0.00    +0.000 A 
ATOM     27  C17 UNL     1      -6.940  -2.311   0.043  0.00  0.00    +0.000 A 
ATOM     28  C18 UNL     1      -7.147  -0.948   0.163  0.00  0.00    +0.000 A 
ATOM     29  C19 UNL     1      -4.178   2.997   0.830  0.00  0.00    +0.000 C 
ATOM     30  H14 UNL     1      -6.779   1.855   0.481  0.00  0.00    +0.000 HD
ENDBRANCH  19  20
ENDBRANCH  18  19
ENDBRANCH  16  18
ENDBRANCH   1  16
TORSDOF 8
