REMARK  Name = ./3D_structures\o61_MMV637879_3D.pdb
REMARK  17 active torsions:
REMARK  status: ('A' for Active; 'I' for Inactive)
REMARK    1  A    between atoms: C1_2  and  C30_40
REMARK    2  A    between atoms: N1_3  and  C2_4
REMARK    3  A    between atoms: C2_4  and  C3_5
REMARK    4  A    between atoms: C2_4  and  C28_36
REMARK    5  A    between atoms: N2_7  and  C4_8
REMARK    6  A    between atoms: C4_8  and  C5_9
REMARK    7  A    between atoms: C4_8  and  C21_29
REMARK    8  A    between atoms: C5_9  and  O3_10
REMARK    9  A    between atoms: C5_9  and  C6_11
REMARK   10  A    between atoms: C6_11  and  N3_12
REMARK   11  A    between atoms: C7_13  and  C8_14
REMARK   12  A    between atoms: N4_16  and  C9_17
REMARK   13  A    between atoms: C9_17  and  C10_18
REMARK   14  A    between atoms: C9_17  and  C11_19
REMARK   15  A    between atoms: C9_17  and  C12_20
REMARK   16  A    between atoms: C21_29  and  C22_30
REMARK   17  A    between atoms: C28_36  and  C29_37
REMARK                            x       y       z     vdW  Elec       q    Type
REMARK                         _______ _______ _______ _____ _____    ______ ____
ROOT
ATOM      1  C4  UNL     1      -0.073  -1.670  -0.401  0.00  0.00    +0.000 C 
ENDROOT
BRANCH   1   4
ATOM      2  C3  UNL     1       2.199  -0.885   0.423  0.00  0.00    +0.000 C 
ATOM      3  O2  UNL     1       2.563  -0.949  -0.804  0.00  0.00    +0.000 OA
ATOM      4  N2  UNL     1       0.839  -1.257   0.643  0.00  0.00    +0.000 N 
ATOM      5  H3  UNL     1       0.482  -1.228   1.620  0.00  0.00    +0.000 HD
BRANCH   2   6
ATOM      6  C2  UNL     1       3.114  -0.469   1.467  0.00  0.00    +0.000 C 
BRANCH   6   9
ATOM      7  O1  UNL     1       4.762   1.996   1.866  0.00  0.00    +0.000 OA
ATOM      8  C1  UNL     1       5.168   1.022   1.201  0.00  0.00    +0.000 C 
ATOM      9  N1  UNL     1       4.412  -0.136   0.991  0.00  0.00    +0.000 N 
ATOM     10  H1  UNL     1       4.900  -0.882   0.371  0.00  0.00    +0.000 HD
BRANCH   8  11
ATOM     11  C30 UNL     1       6.528   1.163   0.633  0.00  0.00    +0.000 A 
ATOM     12  N6  UNL     1       7.078   0.184  -0.111  0.00  0.00    +0.000 NA
ATOM     13  C31 UNL     1       8.330   0.345  -0.613  0.00  0.00    +0.000 A 
ATOM     14  C32 UNL     1       8.930  -0.646  -1.383  0.00  0.00    +0.000 A 
ATOM     15  C33 UNL     1      10.208  -0.490  -1.898  0.00  0.00    +0.000 A 
ATOM     16  C34 UNL     1      10.911   0.686  -1.640  0.00  0.00    +0.000 A 
ATOM     17  C35 UNL     1      10.349   1.670  -0.890  0.00  0.00    +0.000 A 
ATOM     18  C36 UNL     1       9.070   1.498  -0.383  0.00  0.00    +0.000 A 
ATOM     19  C37 UNL     1       8.521   2.504   0.373  0.00  0.00    +0.000 A 
ATOM     20  C38 UNL     1       7.247   2.304   0.867  0.00  0.00    +0.000 A 
ENDBRANCH   8  11
ENDBRANCH   6   9
BRANCH   6  21
ATOM     21  C28 UNL     1       2.578   0.602   2.403  0.00  0.00    +0.000 C 
BRANCH  21  22
ATOM     22  C29 UNL     1       3.342   0.755   3.638  0.00  0.00    +0.000 C 
ATOM     23  O5  UNL     1       4.253  -0.059   3.924  0.00  0.00    +0.000 OA
ATOM     24  N5  UNL     1       3.080   1.814   4.540  0.00  0.00    +0.000 N 
ATOM     25  H43 UNL     1       2.187   1.936   5.065  0.00  0.00    +0.000 HD
ATOM     26  H44 UNL     1       3.822   2.532   4.704  0.00  0.00    +0.000 HD
ENDBRANCH  21  22
ENDBRANCH   6  21
ENDBRANCH   2   6
ENDBRANCH   1   4
BRANCH   1  27
ATOM     27  C5  UNL     1      -1.083  -0.573  -0.639  0.00  0.00    +0.000 C 
BRANCH  27  28
ATOM     28  O3  UNL     1      -0.297   0.539  -1.031  0.00  0.00    +0.000 OA
ATOM     29  H6  UNL     1       0.112   0.392  -1.907  0.00  0.00    +0.000 HD
ENDBRANCH  27  28
BRANCH  27  30
ATOM     30  C6  UNL     1      -1.832  -0.162   0.565  0.00  0.00    +0.000 C 
BRANCH  30  31
ATOM     31  N3  UNL     1      -2.738   0.956   0.391  0.00  0.00    +0.000 NA
ATOM     32  C7  UNL     1      -3.873   0.653  -0.409  0.00  0.00    +0.000 C 
ATOM     33  C13 UNL     1      -5.071   1.426   0.152  0.00  0.00    +0.000 C 
ATOM     34  C14 UNL     1      -5.536   0.940   1.483  0.00  0.00    +0.000 C 
ATOM     35  C15 UNL     1      -6.275   2.068   2.181  0.00  0.00    +0.000 C 
ATOM     36  C16 UNL     1      -6.948   1.504   3.412  0.00  0.00    +0.000 C 
ATOM     37  C17 UNL     1      -5.937   0.643   4.118  0.00  0.00    +0.000 C 
ATOM     38  C18 UNL     1      -4.510   1.016   3.695  0.00  0.00    +0.000 C 
ATOM     39  C19 UNL     1      -4.268   0.605   2.269  0.00  0.00    +0.000 C 
ATOM     40  C20 UNL     1      -3.153   1.454   1.694  0.00  0.00    +0.000 C 
BRANCH  32  41
ATOM     41  C8  UNL     1      -3.787   1.076  -1.827  0.00  0.00    +0.000 C 
ATOM     42  O4  UNL     1      -2.817   1.757  -2.215  0.00  0.00    +0.000 OA
ATOM     43  N4  UNL     1      -4.784   0.724  -2.769  0.00  0.00    +0.000 N 
ATOM     44  H10 UNL     1      -5.572   0.153  -2.386  0.00  0.00    +0.000 HD
BRANCH  43  45
ATOM     45  C9  UNL     1      -4.790   1.078  -4.144  0.00  0.00    +0.000 C 
ATOM     46  C10 UNL     1      -3.560   0.544  -4.883  0.00  0.00    +0.000 C 
ATOM     47  C11 UNL     1      -6.001   0.467  -4.816  0.00  0.00    +0.000 C 
ATOM     48  C12 UNL     1      -4.841   2.564  -4.397  0.00  0.00    +0.000 C 
ENDBRANCH  43  45
ENDBRANCH  32  41
ENDBRANCH  30  31
ENDBRANCH  27  30
ENDBRANCH   1  27
BRANCH   1  49
ATOM     49  C21 UNL     1      -0.669  -3.015  -0.222  0.00  0.00    +0.000 C 
BRANCH  49  50
ATOM     50  C22 UNL     1       0.440  -4.027  -0.182  0.00  0.00    +0.000 A 
ATOM     51  C23 UNL     1       1.046  -4.388   0.999  0.00  0.00    +0.000 A 
ATOM     52  C24 UNL     1       2.059  -5.314   1.075  0.00  0.00    +0.000 A 
ATOM     53  C25 UNL     1       2.487  -5.909  -0.091  0.00  0.00    +0.000 A 
ATOM     54  C26 UNL     1       1.905  -5.574  -1.292  0.00  0.00    +0.000 A 
ATOM     55  C27 UNL     1       0.893  -4.642  -1.330  0.00  0.00    +0.000 A 
ENDBRANCH  49  50
ENDBRANCH   1  49
TORSDOF 14
