REMARK  Name = ./3D_structures\o6_MMV690547_3D.pdb
REMARK  9 active torsions:
REMARK  status: ('A' for Active; 'I' for Inactive)
REMARK    1  A    between atoms: O1_1  and  C1_2
REMARK    2  A    between atoms: O1_1  and  C16_22
REMARK    3  A    between atoms: C1_2  and  C2_3
REMARK    4  A    between atoms: N2_7  and  C5_8
REMARK    5  A    between atoms: C5_8  and  C6_9
REMARK    6  A    between atoms: C6_9  and  O2_10
REMARK    7  A    between atoms: C6_9  and  C7_11
REMARK    8  A    between atoms: C6_9  and  C8_12
REMARK    9  A    between atoms: C16_22  and  C17_23
REMARK                            x       y       z     vdW  Elec       q    Type
REMARK                         _______ _______ _______ _____ _____    ______ ____
ROOT
ATOM      1  C2  UNL     1       1.051  -0.385  -1.296  0.00  0.00    +0.000 A 
ATOM      2  N1  UNL     1       1.191  -1.678  -0.967  0.00  0.00    +0.000 NA
ATOM      3  C3  UNL     1       0.079  -2.087  -0.325  0.00  0.00    +0.000 A 
ATOM      4  C4  UNL     1      -0.756  -0.967  -0.277  0.00  0.00    +0.000 A 
ATOM      5  N2  UNL     1      -0.165   0.085  -0.869  0.00  0.00    +0.000 N 
ATOM      6  C9  UNL     1      -1.986  -1.177   0.335  0.00  0.00    +0.000 A 
ATOM      7  C10 UNL     1      -2.872  -0.142   0.403  0.00  0.00    +0.000 A 
ATOM      8  C11 UNL     1      -4.118  -0.356   1.002  0.00  0.00    +0.000 A 
ATOM      9  C12 UNL     1      -4.425  -1.596   1.507  0.00  0.00    +0.000 A 
ATOM     10  C13 UNL     1      -3.535  -2.638   1.439  0.00  0.00    +0.000 A 
ATOM     11  C14 UNL     1      -2.311  -2.431   0.852  0.00  0.00    +0.000 A 
ATOM     12  N3  UNL     1      -1.446  -3.447   0.764  0.00  0.00    +0.000 NA
ATOM     13  C15 UNL     1      -0.255  -3.321   0.191  0.00  0.00    +0.000 A 
ATOM     14  N4  UNL     1       0.619  -4.421   0.123  0.00  0.00    +0.000 N 
ATOM     15  H16 UNL     1       1.219  -4.682   0.954  0.00  0.00    +0.000 HD
ATOM     16  H17 UNL     1       0.711  -5.023  -0.742  0.00  0.00    +0.000 HD
ENDROOT
BRANCH   1  17
ATOM     17  C1  UNL     1       2.094   0.354  -2.062  0.00  0.00    +0.000 C 
BRANCH  17  18
ATOM     18  O1  UNL     1       3.379  -0.094  -1.704  0.00  0.00    +0.000 OA
BRANCH  18  19
ATOM     19  C16 UNL     1       3.527   0.143  -0.341  0.00  0.00    +0.000 C 
ATOM     20  C17 UNL     1       4.898  -0.324   0.144  0.00  0.00    +0.000 C 
ENDBRANCH  18  19
ENDBRANCH  17  18
ENDBRANCH   1  17
BRANCH   5  21
ATOM     21  C5  UNL     1      -0.630   1.419  -1.018  0.00  0.00    +0.000 C 
BRANCH  21  22
ATOM     22  C6  UNL     1      -0.260   2.385   0.045  0.00  0.00    +0.000 C 
ATOM     23  C7  UNL     1      -0.745   3.763  -0.437  0.00  0.00    +0.000 C 
ATOM     24  C8  UNL     1      -0.714   2.113   1.440  0.00  0.00    +0.000 C 
BRANCH  22  25
ATOM     25  O2  UNL     1       1.148   2.562   0.172  0.00  0.00    +0.000 OA
ATOM     26  H5  UNL     1       1.478   3.231  -0.453  0.00  0.00    +0.000 HD
ENDBRANCH  22  25
ENDBRANCH  21  22
ENDBRANCH   5  21
TORSDOF 6
