REMARK  Name = ./3D_structures\o7_MMV1165877_3D.pdb
REMARK  2 active torsions:
REMARK  status: ('A' for Active; 'I' for Inactive)
REMARK    1  A    between atoms: C4_5  and  C5_6
REMARK    2  A    between atoms: C6_9  and  C16_21
REMARK                            x       y       z     vdW  Elec       q    Type
REMARK                         _______ _______ _______ _____ _____    ______ ____
ROOT
ATOM      1  C5  UNL     1       1.412   0.765  -0.111  0.00  0.00    +0.000 C 
ATOM      2  O1  UNL     1       0.897   1.929   0.057  0.00  0.00    +0.000 OA
ATOM      3  N1  UNL     1       0.494  -0.269  -0.351  0.00  0.00    +0.000 N 
ATOM      4  C6  UNL     1      -0.961  -0.222  -0.352  0.00  0.00    +0.000 C 
ATOM      5  N2  UNL     1      -1.169  -0.849  -1.648  0.00  0.00    +0.000 N 
ATOM      6  C7  UNL     1      -1.968   0.005  -2.416  0.00  0.00    +0.000 C 
ATOM      7  O2  UNL     1      -2.383  -0.219  -3.603  0.00  0.00    +0.000 OA
ATOM      8  C8  UNL     1      -2.242   1.196  -1.621  0.00  0.00    +0.000 A 
ATOM      9  C9  UNL     1      -1.622   1.051  -0.401  0.00  0.00    +0.000 A 
ATOM     10  C10 UNL     1      -1.792   2.119   0.493  0.00  0.00    +0.000 A 
ATOM     11  C11 UNL     1      -2.512   3.247   0.219  0.00  0.00    +0.000 A 
ATOM     12  C12 UNL     1      -3.116   3.350  -1.016  0.00  0.00    +0.000 A 
ATOM     13  C13 UNL     1      -2.988   2.334  -1.939  0.00  0.00    +0.000 A 
ATOM     14  C14 UNL     1      -0.407  -2.095  -1.559  0.00  0.00    +0.000 C 
ATOM     15  C15 UNL     1       0.821  -1.636  -0.756  0.00  0.00    +0.000 C 
ENDROOT
BRANCH   1  20
ATOM     16  F1  UNL     1       7.016   0.856   0.351  0.00  0.00    +0.000 F 
ATOM     17  C1  UNL     1       5.657   0.833   0.228  0.00  0.00    +0.000 A 
ATOM     18  C2  UNL     1       4.928   1.975   0.132  0.00  0.00    +0.000 A 
ATOM     19  C3  UNL     1       3.575   1.910   0.009  0.00  0.00    +0.000 A 
ATOM     20  C4  UNL     1       2.847   0.710  -0.026  0.00  0.00    +0.000 A 
ATOM     21  C22 UNL     1       3.617  -0.425   0.075  0.00  0.00    +0.000 A 
ATOM     22  C23 UNL     1       5.011  -0.372   0.201  0.00  0.00    +0.000 A 
ENDBRANCH   1  20
BRANCH   4  23
ATOM     23  C16 UNL     1      -1.510  -1.124   0.709  0.00  0.00    +0.000 A 
ATOM     24  C17 UNL     1      -0.881  -1.182   1.933  0.00  0.00    +0.000 A 
ATOM     25  C18 UNL     1      -1.362  -2.003   2.953  0.00  0.00    +0.000 A 
ATOM     26  C19 UNL     1      -2.490  -2.744   2.670  0.00  0.00    +0.000 A 
ATOM     27  C20 UNL     1      -3.114  -2.678   1.439  0.00  0.00    +0.000 A 
ATOM     28  C21 UNL     1      -2.634  -1.861   0.425  0.00  0.00    +0.000 A 
ENDBRANCH   4  23
TORSDOF 2
