REMARK  Name = ./3D_structures\o8_MMV1580497_3D.pdb
REMARK  18 active torsions:
REMARK  status: ('A' for Active; 'I' for Inactive)
REMARK    1  A    between atoms: N1_3  and  C2_4
REMARK    2  A    between atoms: C2_4  and  C3_5
REMARK    3  A    between atoms: C2_4  and  C4_6
REMARK    4  A    between atoms: C2_4  and  C5_7
REMARK    5  A    between atoms: N2_8  and  C6_9
REMARK    6  A    between atoms: C6_9  and  C7_10
REMARK    7  A    between atoms: C6_9  and  C24_34
REMARK    8  A    between atoms: C8_13  and  C9_14
REMARK    9  A    between atoms: N4_16  and  C10_17
REMARK   10  A    between atoms: C10_17  and  C11_18
REMARK   11  A    between atoms: C10_17  and  C13_23
REMARK   12  A    between atoms: C11_18  and  C12_20
REMARK   13  A    between atoms: C13_23  and  C14_24
REMARK   14  A    between atoms: C19_29  and  C20_30
REMARK   15  A    between atoms: C19_29  and  C21_31
REMARK   16  A    between atoms: C24_34  and  C25_35
REMARK   17  A    between atoms: C24_34  and  C26_36
REMARK   18  A    between atoms: C24_34  and  C27_37
REMARK                            x       y       z     vdW  Elec       q    Type
REMARK                         _______ _______ _______ _____ _____    ______ ____
ROOT
ATOM      1  C7  UNL     1       1.602  -1.517   1.649  0.00  0.00    +0.000 C 
ATOM      2  O2  UNL     1       2.359  -1.529   2.685  0.00  0.00    +0.000 OA
ATOM      3  N3  UNL     1       0.312  -2.072   1.779  0.00  0.00    +0.000 N 
ATOM      4  C8  UNL     1      -0.766  -2.167   0.843  0.00  0.00    +0.000 C 
ATOM      5  C18 UNL     1      -1.864  -2.999   1.463  0.00  0.00    +0.000 C 
ATOM      6  C19 UNL     1      -1.591  -4.400   1.874  0.00  0.00    +0.000 C 
ATOM      7  C20 UNL     1      -2.799  -5.329   2.013  0.00  0.00    +0.000 C 
ATOM      8  C21 UNL     1      -0.359  -5.116   1.375  0.00  0.00    +0.000 C 
ATOM      9  C22 UNL     1      -1.477  -3.258   2.844  0.00  0.00    +0.000 C 
ATOM     10  C23 UNL     1      -0.124  -2.692   3.045  0.00  0.00    +0.000 C 
ENDROOT
BRANCH   4  11
ATOM     11  C9  UNL     1      -1.384  -0.829   0.563  0.00  0.00    +0.000 C 
ATOM     12  O3  UNL     1      -0.860   0.152   1.139  0.00  0.00    +0.000 OA
ATOM     13  N4  UNL     1      -2.479  -0.627  -0.279  0.00  0.00    +0.000 N 
ATOM     14  H14 UNL     1      -2.926  -1.417  -0.762  0.00  0.00    +0.000 HD
BRANCH  13  15
ATOM     15  C10 UNL     1      -3.070   0.704  -0.540  0.00  0.00    +0.000 C 
BRANCH  15  16
ATOM     16  C11 UNL     1      -4.371   0.689   0.152  0.00  0.00    +0.000 C 
ATOM     17  O4  UNL     1      -5.110  -0.353   0.064  0.00  0.00    +0.000 OA
BRANCH  16  18
ATOM     18  C12 UNL     1      -4.904   1.784   0.958  0.00  0.00    +0.000 C 
ATOM     19  O5  UNL     1      -4.157   2.805   1.083  0.00  0.00    +0.000 OA
ATOM     20  N5  UNL     1      -6.178   1.727   1.569  0.00  0.00    +0.000 N 
ATOM     21  H16 UNL     1      -6.395   1.058   2.327  0.00  0.00    +0.000 HD
ATOM     22  H17 UNL     1      -6.916   2.375   1.246  0.00  0.00    +0.000 HD
ENDBRANCH  16  18
ENDBRANCH  15  16
BRANCH  15  23
ATOM     23  C13 UNL     1      -3.084   0.964  -1.992  0.00  0.00    +0.000 C 
BRANCH  23  24
ATOM     24  C14 UNL     1      -3.606   2.209  -2.541  0.00  0.00    +0.000 C 
ATOM     25  C15 UNL     1      -5.009   2.642  -2.358  0.00  0.00    +0.000 C 
ATOM     26  C16 UNL     1      -4.538   4.005  -1.948  0.00  0.00    +0.000 C 
ATOM     27  C17 UNL     1      -3.121   3.509  -1.959  0.00  0.00    +0.000 C 
ENDBRANCH  23  24
ENDBRANCH  15  23
ENDBRANCH  13  15
ENDBRANCH   4  11
BRANCH   1  28
ATOM     28  C6  UNL     1       2.188  -0.910   0.436  0.00  0.00    +0.000 C 
BRANCH  28  32
ATOM     29  O1  UNL     1       2.449   1.640  -0.468  0.00  0.00    +0.000 OA
ATOM     30  C1  UNL     1       3.322   1.305   0.378  0.00  0.00    +0.000 C 
ATOM     31  N1  UNL     1       4.278   2.285   0.718  0.00  0.00    +0.000 N 
ATOM     32  N2  UNL     1       3.268  -0.008   0.905  0.00  0.00    +0.000 N 
ATOM     33  H1  UNL     1       5.018   2.036   1.433  0.00  0.00    +0.000 HD
ATOM     34  H11 UNL     1       3.979  -0.287   1.603  0.00  0.00    +0.000 HD
BRANCH  31  35
ATOM     35  C2  UNL     1       4.237   3.598   0.094  0.00  0.00    +0.000 C 
ATOM     36  C3  UNL     1       5.352   4.477   0.668  0.00  0.00    +0.000 C 
ATOM     37  C4  UNL     1       4.587   3.452  -1.397  0.00  0.00    +0.000 C 
ATOM     38  C5  UNL     1       2.941   4.311   0.263  0.00  0.00    +0.000 C 
ENDBRANCH  31  35
ENDBRANCH  28  32
BRANCH  28  39
ATOM     39  C24 UNL     1       2.954  -1.922  -0.416  0.00  0.00    +0.000 C 
ATOM     40  C25 UNL     1       3.971  -2.659   0.425  0.00  0.00    +0.000 C 
ATOM     41  C26 UNL     1       3.761  -1.175  -1.486  0.00  0.00    +0.000 C 
ATOM     42  C27 UNL     1       2.107  -2.902  -1.133  0.00  0.00    +0.000 C 
ENDBRANCH  28  39
ENDBRANCH   1  28
TORSDOF 10
