REMARK  Name = ./3D_structures\o9_MMV1580495_3D.pdb
REMARK  5 active torsions:
REMARK  status: ('A' for Active; 'I' for Inactive)
REMARK    1  A    between atoms: N4_8  and  C4_9
REMARK    2  A    between atoms: C5_11  and  C6_12
REMARK    3  A    between atoms: C6_12  and  O3_13
REMARK    4  A    between atoms: C7_14  and  O5_17
REMARK    5  A    between atoms: C8_15  and  O4_16
REMARK                            x       y       z     vdW  Elec       q    Type
REMARK                         _______ _______ _______ _____ _____    ______ ____
ROOT
ATOM      1  C4  UNL     1       0.132  -0.507   0.400  0.00  0.00    +0.000 C 
ATOM      2  O2  UNL     1       1.015  -0.271  -0.674  0.00  0.00    +0.000 OA
ATOM      3  C5  UNL     1       2.248  -0.457  -0.053  0.00  0.00    +0.000 C 
ATOM      4  C7  UNL     1       2.167   0.211   1.285  0.00  0.00    +0.000 C 
ATOM      5  C8  UNL     1       0.665   0.394   1.450  0.00  0.00    +0.000 C 
ENDROOT
BRANCH   1  13
ATOM      6  O1  UNL     1      -1.782   0.502   1.994  0.00  0.00    +0.000 OA
ATOM      7  C1  UNL     1      -2.144   0.155   0.847  0.00  0.00    +0.000 A 
ATOM      8  N1  UNL     1      -3.452   0.301   0.473  0.00  0.00    +0.000 NA
ATOM      9  C2  UNL     1      -3.837  -0.075  -0.766  0.00  0.00    +0.000 A 
ATOM     10  N2  UNL     1      -5.183   0.059  -1.195  0.00  0.00    +0.000 N 
ATOM     11  C3  UNL     1      -2.879  -0.600  -1.617  0.00  0.00    +0.000 A 
ATOM     12  N3  UNL     1      -1.600  -0.720  -1.191  0.00  0.00    +0.000 NA
ATOM     13  N4  UNL     1      -1.228  -0.349   0.026  0.00  0.00    +0.000 N 
ATOM     14  H1  UNL     1      -5.464  -0.300  -2.117  0.00  0.00    +0.000 HD
ATOM     15  H2  UNL     1      -5.864   0.518  -0.570  0.00  0.00    +0.000 HD
ENDBRANCH   1  13
BRANCH   5  16
ATOM     16  O4  UNL     1       0.407   1.742   1.214  0.00  0.00    +0.000 OA
ATOM     17  H11 UNL     1       0.912   2.058   0.437  0.00  0.00    +0.000 HD
ENDBRANCH   5  16
BRANCH   4  18
ATOM     18  O5  UNL     1       2.666  -0.607   2.278  0.00  0.00    +0.000 OA
ATOM     19  H12 UNL     1       1.927  -1.092   2.766  0.00  0.00    +0.000 HD
ENDBRANCH   4  18
BRANCH   3  20
ATOM     20  C6  UNL     1       3.378   0.086  -0.903  0.00  0.00    +0.000 C 
BRANCH  20  21
ATOM     21  O3  UNL     1       3.402  -0.568  -2.135  0.00  0.00    +0.000 OA
ATOM     22  H8  UNL     1       4.321  -0.543  -2.540  0.00  0.00    +0.000 HD
ENDBRANCH  20  21
ENDBRANCH   3  20
TORSDOF 5
