2D_structures\o10_MMV1230557_2D.pdb
 OpenBabel02272408253D

 33 35  0  0  0  0  0  0  0  0999 V2000
   -3.6850   -2.3510    0.0000 Cl  0  0  0  0  0  0  0  0  0  0  0  0
   -4.4580   -1.0660    0.0000 C   0  0  0  0  0  0  0  0  0  0  0  0
   -5.9580   -1.0940    0.0000 C   0  0  0  0  0  0  0  0  0  0  0  0
   -6.7320    0.1910    0.0000 C   0  0  0  0  0  0  0  0  0  0  0  0
   -6.0060    1.5040    0.0000 C   0  0  0  0  0  0  0  0  0  0  0  0
   -4.5060    1.5310    0.0000 C   0  0  0  0  0  0  0  0  0  0  0  0
   -3.7320    0.2460    0.0000 C   0  0  0  0  0  0  0  0  0  0  0  0
   -2.2330    0.2740    0.0000 C   0  0  0  0  0  0  0  0  0  0  0  0
   -0.7330    0.3010    0.0000 N   0  0  0  0  0  0  0  0  0  0  0  0
    0.0410   -0.9840    0.0000 C   0  0  0  0  0  0  0  0  0  0  0  0
   -0.6850   -2.2960    0.0000 O   0  0  0  0  0  0  0  0  0  0  0  0
    1.5410   -0.9560    0.0000 C   0  0  0  0  0  0  0  0  0  0  0  0
    2.3140   -2.2410    0.0000 C   0  0  0  0  0  0  0  0  0  0  0  0
    3.8140   -2.2130    0.0000 N   0  0  0  0  0  0  0  0  0  0  0  0
    4.5400   -0.9010    0.0000 C   0  0  0  0  0  0  0  0  0  0  0  0
    6.0400   -0.8730    0.0000 C   0  0  0  0  0  0  0  0  0  0  0  0
    6.7660    0.4400    0.0000 C   0  0  0  0  0  0  0  0  0  0  0  0
    5.9920    1.7250    0.0000 C   0  0  0  0  0  0  0  0  0  0  0  0
    4.4920    1.6970    0.0000 C   0  0  0  0  0  0  0  0  0  0  0  0
    3.7660    0.3840    0.0000 C   0  0  0  0  0  0  0  0  0  0  0  0
    2.2670    0.3570    0.0000 N   0  0  0  0  0  0  0  0  0  0  0  0
   -6.6840   -2.4070    0.0000 H   0  0  0  0  0  0  0  0  0  0  0  0
   -8.2320    0.1630    0.0000 H   0  0  0  0  0  0  0  0  0  0  0  0
   -6.7800    2.7890    0.0000 H   0  0  0  0  0  0  0  0  0  0  0  0
   -3.7800    2.8440    0.0000 H   0  0  0  0  0  0  0  0  0  0  0  0
   -2.2050   -1.2260    0.0000 H   0  0  0  0  0  0  0  0  0  0  0  0
   -2.2600    1.7740    0.0000 H   0  0  0  0  0  0  0  0  0  0  0  0
   -0.0070    1.6140    0.0000 H   0  0  0  0  0  0  0  0  0  0  0  0
    1.5880   -3.5540    0.0000 H   0  0  0  0  0  0  0  0  0  0  0  0
    6.8140   -2.1580    0.0000 H   0  0  0  0  0  0  0  0  0  0  0  0
    8.2660    0.4670    0.0000 H   0  0  0  0  0  0  0  0  0  0  0  0
    6.7180    3.0370    0.0000 H   0  0  0  0  0  0  0  0  0  0  0  0
    3.7180    2.9820    0.0000 H   0  0  0  0  0  0  0  0  0  0  0  0
  1  2  1  0  0  0  0
  2  3  2  0  0  0  0
  2  7  1  0  0  0  0
  3  4  1  0  0  0  0
  3 22  1  0  0  0  0
  4  5  2  0  0  0  0
  4 23  1  0  0  0  0
  5  6  1  0  0  0  0
  5 24  1  0  0  0  0
  6  7  2  0  0  0  0
  6 25  1  0  0  0  0
  7  8  1  0  0  0  0
  8  9  1  0  0  0  0
  8 26  1  0  0  0  0
  8 27  1  0  0  0  0
  9 10  1  0  0  0  0
  9 28  1  0  0  0  0
 10 11  2  0  0  0  0
 10 12  1  0  0  0  0
 12 13  2  0  0  0  0
 12 21  1  0  0  0  0
 13 14  1  0  0  0  0
 13 29  1  0  0  0  0
 14 15  2  0  0  0  0
 15 16  1  0  0  0  0
 15 20  1  0  0  0  0
 16 17  2  0  0  0  0
 16 30  1  0  0  0  0
 17 18  1  0  0  0  0
 17 31  1  0  0  0  0
 18 19  2  0  0  0  0
 18 32  1  0  0  0  0
 19 20  1  0  0  0  0
 19 33  1  0  0  0  0
 20 21  2  0  0  0  0
M  END
$$$$
