2D_structures\o11_MMV1593540_2D.pdb
 OpenBabel02272408253D

 74 80  0  0  0  0  0  0  0  0999 V2000
    1.8050    3.1960    0.0000 C   0  0  0  0  0  0  0  0  0  0  0  0
    1.1870    1.8290    0.0000 O   0  0  0  0  0  0  0  0  0  0  0  0
   -0.3050    1.6810    0.0000 C   0  0  0  0  0  0  0  0  0  0  0  0
   -0.9230    0.3130    0.0000 C   0  0  0  0  0  0  0  0  0  0  0  0
   -0.0480   -0.9050    0.0000 O   0  0  0  0  0  0  0  0  0  0  0  0
    1.4450   -0.7560    0.0000 C   0  0  0  0  0  0  0  0  0  0  0  0
    2.9380   -0.6070    0.0000 C   0  0  0  0  0  0  0  0  0  0  0  0
    4.4300   -0.4580    0.0000 N   0  0  0  0  0  0  0  0  0  0  0  0
    5.0480    0.9090    0.0000 C   0  0  0  0  0  0  0  0  0  0  0  0
    5.6650    2.2760    0.0000 C   0  0  0  0  0  0  0  0  0  0  0  0
    6.2820    3.6430    0.0000 N   0  0  0  0  0  0  0  0  0  0  0  0
    5.5390    4.9460    0.0000 C   0  0  0  0  0  0  0  0  0  0  0  0
    6.5490    6.0550    0.0000 N   0  0  0  0  0  4  0  0  0  0  0  0
    7.9160    5.4380    0.0000 C   0  0  0  0  0  0  0  0  0  0  0  0
    7.7510    3.9470    0.0000 N   0  0  0  0  0  0  0  0  0  0  0  0
    5.3050   -1.6760    0.0000 C   0  0  0  0  0  0  0  0  0  0  0  0
    6.1810   -2.8950    0.0000 C   0  0  0  0  0  0  0  0  0  0  0  0
    5.5630   -4.2620    0.0000 C   0  0  0  0  0  0  0  0  0  0  0  0
    4.0710   -4.4100    0.0000 F   0  0  0  0  0  0  0  0  0  0  0  0
    6.4380   -5.4800    0.0000 C   0  0  0  0  0  0  0  0  0  0  0  0
    7.9310   -5.3310    0.0000 C   0  0  0  0  0  0  0  0  0  0  0  0
    8.8060   -6.5490    0.0000 F   0  0  0  0  0  0  0  0  0  0  0  0
    8.5480   -3.9640    0.0000 C   0  0  0  0  0  0  0  0  0  0  0  0
    7.6730   -2.7460    0.0000 C   0  0  0  0  0  0  0  0  0  0  0  0
   -2.4150    0.1650    0.0000 C   0  0  0  0  0  0  0  0  0  0  0  0
   -3.0330   -1.2020    0.0000 C   0  0  0  0  0  0  0  0  0  0  0  0
   -4.5250   -1.3510    0.0000 N   0  3  0  0  0  0  0  0  0  0  0  0
   -5.4010   -0.1330    0.0000 C   0  0  0  0  0  0  0  0  0  0  0  0
   -4.7830    1.2340    0.0000 C   0  0  0  0  0  0  0  0  0  0  0  0
   -3.2910    1.3830    0.0000 C   0  0  0  0  0  0  0  0  0  0  0  0
   -2.6730    2.7500    0.0000 C   0  0  0  0  0  0  0  0  0  0  0  0
   -1.1810    2.8990    0.0000 C   0  0  0  0  0  0  0  0  0  0  0  0
   -6.8930   -0.2820    0.0000 C   0  0  0  0  0  0  0  0  0  0  0  0
   -7.5110   -1.6490    0.0000 C   0  0  0  0  0  0  0  0  0  0  0  0
   -6.6350   -2.8670    0.0000 C   0  0  0  0  0  0  0  0  0  0  0  0
   -5.1430   -2.7180    0.0000 C   0  0  0  0  0  0  0  0  0  0  0  0
   -9.0030   -1.7980    0.0000 C   0  0  0  0  0  0  0  0  0  0  0  0
   -9.8780   -0.5800    0.0000 C   0  0  0  0  0  0  0  0  0  0  0  0
  -11.3690   -0.4150    0.0000 O   0  0  0  0  0  0  0  0  0  0  0  0
  -11.6730    1.0540    0.0000 C   0  0  0  0  0  0  0  0  0  0  0  0
  -10.3700    1.7970    0.0000 O   0  0  0  0  0  0  0  0  0  0  0  0
   -9.2610    0.7870    0.0000 C   0  0  0  0  0  0  0  0  0  0  0  0
   -7.7680    0.9360    0.0000 C   0  0  0  0  0  0  0  0  0  0  0  0
    2.4220    4.5630    0.0000 H   0  0  0  0  0  0  0  0  0  0  0  0
    0.4370    3.8140    0.0000 H   0  0  0  0  0  0  0  0  0  0  0  0
    3.1720    2.5790    0.0000 H   0  0  0  0  0  0  0  0  0  0  0  0
    1.5940   -2.2480    0.0000 H   0  0  0  0  0  0  0  0  0  0  0  0
    1.2960    0.7370    0.0000 H   0  0  0  0  0  0  0  0  0  0  0  0
    2.7890    0.8860    0.0000 H   0  0  0  0  0  0  0  0  0  0  0  0
    3.0860   -2.1000    0.0000 H   0  0  0  0  0  0  0  0  0  0  0  0
    3.6810    1.5260    0.0000 H   0  0  0  0  0  0  0  0  0  0  0  0
    6.4150    0.2920    0.0000 H   0  0  0  0  0  0  0  0  0  0  0  0
    4.2980    2.8930    0.0000 H   0  0  0  0  0  0  0  0  0  0  0  0
    7.0320    1.6590    0.0000 H   0  0  0  0  0  0  0  0  0  0  0  0
    4.0480    5.1110    0.0000 H   0  0  0  0  0  0  0  0  0  0  0  0
    9.2190    6.1810    0.0000 H   0  0  0  0  0  0  0  0  0  0  0  0
    4.0870   -2.5520    0.0000 H   0  0  0  0  0  0  0  0  0  0  0  0
    6.5240   -0.8010    0.0000 H   0  0  0  0  0  0  0  0  0  0  0  0
    5.8210   -6.8470    0.0000 H   0  0  0  0  0  0  0  0  0  0  0  0
   10.0410   -3.8150    0.0000 H   0  0  0  0  0  0  0  0  0  0  0  0
    8.2910   -1.3790    0.0000 H   0  0  0  0  0  0  0  0  0  0  0  0
   -2.1580   -2.4210    0.0000 H   0  0  0  0  0  0  0  0  0  0  0  0
   -5.6580    2.4520    0.0000 H   0  0  0  0  0  0  0  0  0  0  0  0
   -3.5480    3.9680    0.0000 H   0  0  0  0  0  0  0  0  0  0  0  0
   -0.5630    4.2660    0.0000 H   0  0  0  0  0  0  0  0  0  0  0  0
   -6.2300   -4.3110    0.0000 H   0  0  0  0  0  0  0  0  0  0  0  0
   -7.9870   -3.5180    0.0000 H   0  0  0  0  0  0  0  0  0  0  0  0
   -3.6890   -3.0890    0.0000 H   0  0  0  0  0  0  0  0  0  0  0  0
   -5.2550   -4.2140    0.0000 H   0  0  0  0  0  0  0  0  0  0  0  0
   -9.6210   -3.1650    0.0000 H   0  0  0  0  0  0  0  0  0  0  0  0
  -13.1020    0.5980    0.0000 H   0  0  0  0  0  0  0  0  0  0  0  0
  -12.2760    2.4270    0.0000 H   0  0  0  0  0  0  0  0  0  0  0  0
   -7.1510    2.3030    0.0000 H   0  0  0  0  0  0  0  0  0  0  0  0
    8.4790    3.2843    0.0000 H   0  0  0  0  0  0  0  0  0  0  0  0
  1  2  1  0  0  0  0
  1 44  1  0  0  0  0
  1 45  1  0  0  0  0
  1 46  1  0  0  0  0
  2  3  1  0  0  0  0
  3  4  2  0  0  0  0
  3 32  1  0  0  0  0
  4  5  1  0  0  0  0
  4 25  1  0  0  0  0
  5  6  1  0  0  0  0
  6  7  1  0  0  0  0
  6 47  1  0  0  0  0
  6 48  1  0  0  0  0
  7  8  1  0  0  0  0
  7 49  1  0  0  0  0
  7 50  1  0  0  0  0
  8  9  1  0  0  0  0
  8 16  1  0  0  0  0
  9 10  1  0  0  0  0
  9 51  1  0  0  0  0
  9 52  1  0  0  0  0
 10 11  1  0  0  0  0
 10 53  1  0  0  0  0
 10 54  1  0  0  0  0
 11 12  1  0  0  0  0
 11 15  1  0  0  0  0
 12 13  2  0  0  0  0
 12 55  1  0  0  0  0
 13 14  2  0  0  0  0
 14 15  1  0  0  0  0
 14 56  1  0  0  0  0
 15 74  1  0  0  0  0
 16 17  1  0  0  0  0
 16 57  1  0  0  0  0
 16 58  1  0  0  0  0
 17 18  2  0  0  0  0
 17 24  1  0  0  0  0
 18 19  1  0  0  0  0
 18 20  1  0  0  0  0
 20 21  2  0  0  0  0
 20 59  1  0  0  0  0
 21 22  1  0  0  0  0
 21 23  1  0  0  0  0
 23 24  2  0  0  0  0
 23 60  1  0  0  0  0
 24 61  1  0  0  0  0
 25 26  2  0  0  0  0
 25 30  1  0  0  0  0
 26 27  1  0  0  0  0
 26 62  1  0  0  0  0
 27 28  2  0  0  0  0
 27 36  1  0  0  0  0
 28 29  1  0  0  0  0
 28 33  1  0  0  0  0
 29 30  2  0  0  0  0
 29 63  1  0  0  0  0
 30 31  1  0  0  0  0
 31 32  2  0  0  0  0
 31 64  1  0  0  0  0
 32 65  1  0  0  0  0
 33 34  2  0  0  0  0
 33 43  1  0  0  0  0
 34 35  1  0  0  0  0
 34 37  1  0  0  0  0
 35 36  1  0  0  0  0
 35 66  1  0  0  0  0
 35 67  1  0  0  0  0
 36 68  1  0  0  0  0
 36 69  1  0  0  0  0
 37 38  2  0  0  0  0
 37 70  1  0  0  0  0
 38 39  1  0  0  0  0
 38 42  1  0  0  0  0
 39 40  1  0  0  0  0
 40 41  1  0  0  0  0
 40 71  1  0  0  0  0
 40 72  1  0  0  0  0
 41 42  1  0  0  0  0
 42 43  2  0  0  0  0
 43 73  1  0  0  0  0
M  CHG  1  27   1
M  END
$$$$
