2D_structures\o13_MMV1582495_2D.pdb
 OpenBabel02272408253D

 32 35  0  0  0  0  0  0  0  0999 V2000
    6.6910   -1.3430    0.0000 C   0  0  0  0  0  0  0  0  0  0  0  0
    6.6040    0.1550    0.0000 O   0  0  0  0  0  0  0  0  0  0  0  0
    5.1530    0.5350    0.0000 C   0  0  0  0  0  0  0  0  0  0  0  0
    4.4650    1.8670    0.0000 C   0  0  0  0  0  0  0  0  0  0  0  0
    2.9660    1.9380    0.0000 C   0  0  0  0  0  0  0  0  0  0  0  0
    2.1570    0.6750    0.0000 C   0  0  0  0  0  0  0  0  0  0  0  0
    0.6580    0.7450    0.0000 C   0  0  0  0  0  0  0  0  0  0  0  0
   -0.1520   -0.5180    0.0000 C   0  0  0  0  0  0  0  0  0  0  0  0
   -1.6500   -0.4480    0.0000 C   0  0  0  0  0  0  0  0  0  0  0  0
   -2.5870   -1.6190    0.0000 N   0  0  0  0  0  0  0  0  0  0  0  0
   -3.9910   -1.0890    0.0000 C   0  0  0  0  0  0  0  0  0  0  0  0
   -5.3230   -1.7770    0.0000 C   0  0  0  0  0  0  0  0  0  0  0  0
   -6.5860   -0.9680    0.0000 C   0  0  0  0  0  0  0  0  0  0  0  0
   -6.5160    0.5310    0.0000 C   0  0  0  0  0  0  0  0  0  0  0  0
   -5.1830    1.2190    0.0000 C   0  0  0  0  0  0  0  0  0  0  0  0
   -3.9210    0.4090    0.0000 C   0  0  0  0  0  0  0  0  0  0  0  0
   -2.4740    0.8060    0.0000 N   0  0  0  0  0  0  0  0  0  0  0  0
    2.8450   -0.6580    0.0000 C   0  0  0  0  0  0  0  0  0  0  0  0
    4.3430   -0.7280    0.0000 C   0  0  0  0  0  0  0  0  0  0  0  0
    5.2940   -1.8880    0.0000 O   0  0  0  0  0  0  0  0  0  0  0  0
    8.1720   -1.1000    0.0000 H   0  0  0  0  0  0  0  0  0  0  0  0
    7.0880   -2.7890    0.0000 H   0  0  0  0  0  0  0  0  0  0  0  0
    5.2750    3.1300    0.0000 H   0  0  0  0  0  0  0  0  0  0  0  0
    2.2780    3.2700    0.0000 H   0  0  0  0  0  0  0  0  0  0  0  0
   -0.0300    2.0780    0.0000 H   0  0  0  0  0  0  0  0  0  0  0  0
    0.5370   -1.8500    0.0000 H   0  0  0  0  0  0  0  0  0  0  0  0
   -5.3930   -3.2760    0.0000 H   0  0  0  0  0  0  0  0  0  0  0  0
   -7.9190   -1.6560    0.0000 H   0  0  0  0  0  0  0  0  0  0  0  0
   -7.7790    1.3410    0.0000 H   0  0  0  0  0  0  0  0  0  0  0  0
   -5.1130    2.7180    0.0000 H   0  0  0  0  0  0  0  0  0  0  0  0
   -1.9440    2.2090    0.0000 H   0  0  0  0  0  0  0  0  0  0  0  0
    2.0350   -1.9200    0.0000 H   0  0  0  0  0  0  0  0  0  0  0  0
  1  2  1  0  0  0  0
  1 20  1  0  0  0  0
  1 21  1  0  0  0  0
  1 22  1  0  0  0  0
  2  3  1  0  0  0  0
  3  4  2  0  0  0  0
  3 19  1  0  0  0  0
  4  5  1  0  0  0  0
  4 23  1  0  0  0  0
  5  6  2  0  0  0  0
  5 24  1  0  0  0  0
  6  7  1  0  0  0  0
  6 18  1  0  0  0  0
  7  8  2  0  0  0  0
  7 25  1  0  0  0  0
  8  9  1  0  0  0  0
  8 26  1  0  0  0  0
  9 10  2  0  0  0  0
  9 17  1  0  0  0  0
 10 11  1  0  0  0  0
 11 12  2  0  0  0  0
 11 16  1  0  0  0  0
 12 13  1  0  0  0  0
 12 27  1  0  0  0  0
 13 14  2  0  0  0  0
 13 28  1  0  0  0  0
 14 15  1  0  0  0  0
 14 29  1  0  0  0  0
 15 16  2  0  0  0  0
 15 30  1  0  0  0  0
 16 17  1  0  0  0  0
 17 31  1  0  0  0  0
 18 19  2  0  0  0  0
 18 32  1  0  0  0  0
 19 20  1  0  0  0  0
M  END
$$$$
