2D_structures\o17_MMV1581547_2D.pdb
 OpenBabel02272408253D

 46 47  0  0  1  0  0  0  0  0999 V2000
    3.9150    2.2280    0.0000 C   0  0  0  0  0  0  0  0  0  0  0  0
    5.0670    1.2670    0.0000 C   0  0  0  0  0  0  0  0  0  0  0  0
    6.2200    0.3060    0.0000 C   0  0  0  0  0  0  0  0  0  0  0  0
    6.0280    2.4190    0.0000 C   0  0  0  0  0  0  0  0  0  0  0  0
    4.1070    0.1150    0.0000 O   0  0  0  0  0  0  0  0  0  0  0  0
    4.6240   -1.2930    0.0000 C   0  0  0  0  0  0  0  0  0  0  0  0
    5.4970   -1.4440    0.0000 O   0  0  0  0  0  0  0  0  0  0  0  0
    3.6640   -2.4450    0.0000 N   0  0  0  0  0  0  0  0  0  0  0  0
    2.1860   -2.1890    0.0000 C   0  0  0  0  0  0  0  0  0  0  0  0
    0.7080   -1.9330    0.0000 C   0  0  0  0  0  0  0  0  0  0  0  0
   -0.2530   -3.0850    0.0000 C   0  0  0  0  0  0  0  0  0  0  0  0
   -1.7310   -2.8290    0.0000 C   0  0  0  0  0  0  0  0  0  0  0  0
   -2.2480   -1.4210    0.0000 C   0  0  0  0  0  0  0  0  0  0  0  0
   -1.2880   -0.2690    0.0000 C   0  0  0  0  0  0  0  0  0  0  0  0
    0.1900   -0.5250    0.0000 C   0  0  0  0  0  0  0  0  0  0  0  0
   -3.7260   -1.1650    0.0000 C   0  0  0  0  0  0  0  0  0  0  0  0
   -4.6870   -2.3170    0.0000 O   0  0  0  0  0  0  0  0  0  0  0  0
   -4.2440    0.2430    0.0000 N   0  0  0  0  0  0  0  0  0  0  0  0
   -5.7220    0.4980    0.0000 C   0  0  1  0  0  0  0  0  0  0  0  0
   -7.2210    0.4410    0.0000 C   0  0  0  0  0  0  0  0  0  0  0  0
   -7.7380    1.8490    0.0000 C   0  0  0  0  0  0  0  0  0  0  0  0
   -6.5590    2.7770    0.0000 O   0  0  0  0  0  0  0  0  0  0  0  0
   -5.3130    1.9420    0.0000 C   0  0  0  0  0  0  0  0  0  0  0  0
   -3.9050    2.4590    0.0000 O   0  0  0  0  0  0  0  0  0  0  0  0
    2.7630    3.1880    0.0000 H   0  0  0  0  0  0  0  0  0  0  0  0
    4.3960    2.9720    0.0000 H   0  0  0  0  0  0  0  0  0  0  0  0
    2.9550    1.0760    0.0000 H   0  0  0  0  0  0  0  0  0  0  0  0
    7.3720   -0.6540    0.0000 H   0  0  0  0  0  0  0  0  0  0  0  0
    6.8650    0.9130    0.0000 H   0  0  0  0  0  0  0  0  0  0  0  0
    5.8340   -0.4910    0.0000 H   0  0  0  0  0  0  0  0  0  0  0  0
    6.9890    3.5710    0.0000 H   0  0  0  0  0  0  0  0  0  0  0  0
    6.7720    1.9390    0.0000 H   0  0  0  0  0  0  0  0  0  0  0  0
    5.4220    3.0650    0.0000 H   0  0  0  0  0  0  0  0  0  0  0  0
    4.1810   -3.8530    0.0000 H   0  0  0  0  0  0  0  0  0  0  0  0
    1.9300   -3.6670    0.0000 H   0  0  0  0  0  0  0  0  0  0  0  0
    2.4420   -0.7110    0.0000 H   0  0  0  0  0  0  0  0  0  0  0  0
    0.2640   -4.4930    0.0000 H   0  0  0  0  0  0  0  0  0  0  0  0
   -2.6920   -3.9810    0.0000 H   0  0  0  0  0  0  0  0  0  0  0  0
   -1.8050    1.1390    0.0000 H   0  0  0  0  0  0  0  0  0  0  0  0
    1.1510    0.6270    0.0000 H   0  0  0  0  0  0  0  0  0  0  0  0
   -3.2830    1.3950    0.0000 H   0  0  0  0  0  0  0  0  0  0  0  0
   -5.8220   -0.9980    0.0000 H   0  0  0  0  0  0  0  0  0  0  0  0
   -7.0070   -1.0430    0.0000 H   0  0  0  0  0  0  0  0  0  0  0  0
   -8.6750    0.0740    0.0000 H   0  0  0  0  0  0  0  0  0  0  0  0
   -9.0840    1.1880    0.0000 H   0  0  0  0  0  0  0  0  0  0  0  0
   -8.5370    3.1190    0.0000 H   0  0  0  0  0  0  0  0  0  0  0  0
  1  2  1  0  0  0  0
  1 25  1  0  0  0  0
  1 26  1  0  0  0  0
  1 27  1  0  0  0  0
  2  3  1  0  0  0  0
  2  4  1  0  0  0  0
  2  5  1  0  0  0  0
  3 28  1  0  0  0  0
  3 29  1  0  0  0  0
  3 30  1  0  0  0  0
  4 31  1  0  0  0  0
  4 32  1  0  0  0  0
  4 33  1  0  0  0  0
  5  6  1  0  0  0  0
  6  7  2  0  0  0  0
  6  8  1  0  0  0  0
  8  9  1  0  0  0  0
  8 34  1  0  0  0  0
  9 10  1  0  0  0  0
  9 35  1  0  0  0  0
  9 36  1  0  0  0  0
 10 11  2  0  0  0  0
 10 15  1  0  0  0  0
 11 12  1  0  0  0  0
 11 37  1  0  0  0  0
 12 13  2  0  0  0  0
 12 38  1  0  0  0  0
 13 14  1  0  0  0  0
 13 16  1  0  0  0  0
 14 15  2  0  0  0  0
 14 39  1  0  0  0  0
 15 40  1  0  0  0  0
 16 17  2  0  0  0  0
 16 18  1  0  0  0  0
 18 19  1  0  0  0  0
 18 41  1  0  0  0  0
 19 20  1  0  0  0  0
 19 23  1  0  0  0  0
 19 42  1  6  0  0  0
 20 21  1  0  0  0  0
 20 43  1  0  0  0  0
 20 44  1  0  0  0  0
 21 22  1  0  0  0  0
 21 45  1  0  0  0  0
 21 46  1  0  0  0  0
 22 23  1  0  0  0  0
 23 24  2  0  0  0  0
M  END
$$$$
