2D_structures\o18_MMV687800_2D.pdb
 OpenBabel02272408253D

 55 59  0  0  0  0  0  0  0  0999 V2000
   -0.6360    2.8520    0.0000 C   0  0  0  0  0  0  0  0  0  0  0  0
    0.4110    3.9260    0.0000 C   0  0  0  0  0  0  0  0  0  0  0  0
    1.4590    4.9990    0.0000 C   0  0  0  0  0  0  0  0  0  0  0  0
    1.4850    2.8780    0.0000 N   0  0  0  0  0  0  0  0  0  0  0  0
    1.1140    1.4240    0.0000 C   0  0  0  0  0  0  0  0  0  0  0  0
   -0.3300    1.0190    0.0000 C   0  0  0  0  0  0  0  0  0  0  0  0
   -0.7010   -0.4350    0.0000 C   0  0  0  0  0  0  0  0  0  0  0  0
   -2.1450   -0.8400    0.0000 N   0  0  0  0  0  0  0  0  0  0  0  0
   -3.2180    0.2070    0.0000 C   0  0  0  0  0  0  0  0  0  0  0  0
   -2.8480    1.6610    0.0000 C   0  0  0  0  0  0  0  0  0  0  0  0
   -3.9210    2.7090    0.0000 C   0  0  0  0  0  0  0  0  0  0  0  0
   -5.3650    2.3030    0.0000 C   0  0  0  0  0  0  0  0  0  0  0  0
   -6.4380    3.3510    0.0000 Cl  0  0  0  0  0  0  0  0  0  0  0  0
   -5.7360    0.8500    0.0000 C   0  0  0  0  0  0  0  0  0  0  0  0
   -4.6630   -0.1980    0.0000 C   0  0  0  0  0  0  0  0  0  0  0  0
   -2.5160   -2.2940    0.0000 C   0  0  0  0  0  0  0  0  0  0  0  0
   -3.9600   -2.7000    0.0000 C   0  0  0  0  0  0  0  0  0  0  0  0
   -4.3310   -4.1530    0.0000 C   0  0  0  0  0  0  0  0  0  0  0  0
   -3.2580   -5.2010    0.0000 C   0  0  0  0  0  0  0  0  0  0  0  0
   -1.8130   -4.7950    0.0000 C   0  0  0  0  0  0  0  0  0  0  0  0
   -1.4430   -3.3420    0.0000 C   0  0  0  0  0  0  0  0  0  0  0  0
    0.0020   -2.9360    0.0000 N   0  0  0  0  0  0  0  0  0  0  0  0
    0.3720   -1.4830    0.0000 C   0  0  0  0  0  0  0  0  0  0  0  0
    1.8160   -1.0770    0.0000 C   0  0  0  0  0  0  0  0  0  0  0  0
    2.1870    0.3760    0.0000 C   0  0  0  0  0  0  0  0  0  0  0  0
    3.6310    0.7820    0.0000 N   0  0  0  0  0  0  0  0  0  0  0  0
    4.7050   -0.2660    0.0000 C   0  0  0  0  0  0  0  0  0  0  0  0
    4.3340   -1.7190    0.0000 C   0  0  0  0  0  0  0  0  0  0  0  0
    5.4070   -2.7670    0.0000 C   0  0  0  0  0  0  0  0  0  0  0  0
    6.8510   -2.3620    0.0000 C   0  0  0  0  0  0  0  0  0  0  0  0
    7.9250   -3.4090    0.0000 Cl  0  0  0  0  0  0  0  0  0  0  0  0
    7.2220   -0.9080    0.0000 C   0  0  0  0  0  0  0  0  0  0  0  0
    6.1490    0.1400    0.0000 C   0  0  0  0  0  0  0  0  0  0  0  0
   -1.1930    2.2820    0.0000 H   0  0  0  0  0  0  0  0  0  0  0  0
   -1.7100    3.9000    0.0000 H   0  0  0  0  0  0  0  0  0  0  0  0
    0.0020    1.8180    0.0000 H   0  0  0  0  0  0  0  0  0  0  0  0
   -0.6620    4.9730    0.0000 H   0  0  0  0  0  0  0  0  0  0  0  0
    2.5070    6.0720    0.0000 H   0  0  0  0  0  0  0  0  0  0  0  0
    0.3860    6.0470    0.0000 H   0  0  0  0  0  0  0  0  0  0  0  0
    2.5330    3.9510    0.0000 H   0  0  0  0  0  0  0  0  0  0  0  0
   -0.9010    1.5750    0.0000 H   0  0  0  0  0  0  0  0  0  0  0  0
   -1.4040    2.0660    0.0000 H   0  0  0  0  0  0  0  0  0  0  0  0
   -3.5500    4.1620    0.0000 H   0  0  0  0  0  0  0  0  0  0  0  0
   -7.1800    0.4440    0.0000 H   0  0  0  0  0  0  0  0  0  0  0  0
   -5.2080   -1.5960    0.0000 H   0  0  0  0  0  0  0  0  0  0  0  0
   -5.1530   -1.7900    0.0000 H   0  0  0  0  0  0  0  0  0  0  0  0
   -5.7750   -4.5590    0.0000 H   0  0  0  0  0  0  0  0  0  0  0  0
   -3.6280   -6.6540    0.0000 H   0  0  0  0  0  0  0  0  0  0  0  0
   -0.7400   -5.8430    0.0000 H   0  0  0  0  0  0  0  0  0  0  0  0
    2.7540   -2.2480    0.0000 H   0  0  0  0  0  0  0  0  0  0  0  0
    4.0020    2.2350    0.0000 H   0  0  0  0  0  0  0  0  0  0  0  0
    2.9500   -2.2980    0.0000 H   0  0  0  0  0  0  0  0  0  0  0  0
    5.0360   -4.2210    0.0000 H   0  0  0  0  0  0  0  0  0  0  0  0
    8.6660   -0.5020    0.0000 H   0  0  0  0  0  0  0  0  0  0  0  0
    6.5200    1.5930    0.0000 H   0  0  0  0  0  0  0  0  0  0  0  0
  1  2  1  0  0  0  0
  1 34  1  0  0  0  0
  1 35  1  0  0  0  0
  1 36  1  0  0  0  0
  2  3  1  0  0  0  0
  2  4  1  0  0  0  0
  2 37  1  0  0  0  0
  3 38  1  0  0  0  0
  3 39  1  0  0  0  0
  3 40  1  0  0  0  0
  4  5  2  0  0  0  0
  5  6  1  0  0  0  0
  5 25  1  0  0  0  0
  6  7  2  0  0  0  0
  6 41  1  0  0  0  0
  7  8  1  0  0  0  0
  7 23  1  0  0  0  0
  8  9  1  0  0  0  0
  8 16  1  0  0  0  0
  9 10  2  0  0  0  0
  9 15  1  0  0  0  0
 10 11  1  0  0  0  0
 10 42  1  0  0  0  0
 11 12  2  0  0  0  0
 11 43  1  0  0  0  0
 12 13  1  0  0  0  0
 12 14  1  0  0  0  0
 14 15  2  0  0  0  0
 14 44  1  0  0  0  0
 15 45  1  0  0  0  0
 16 17  2  0  0  0  0
 16 21  1  0  0  0  0
 17 18  1  0  0  0  0
 17 46  1  0  0  0  0
 18 19  2  0  0  0  0
 18 47  1  0  0  0  0
 19 20  1  0  0  0  0
 19 48  1  0  0  0  0
 20 21  2  0  0  0  0
 20 49  1  0  0  0  0
 21 22  1  0  0  0  0
 22 23  2  0  0  0  0
 23 24  1  0  0  0  0
 24 25  2  0  0  0  0
 24 50  1  0  0  0  0
 25 26  1  0  0  0  0
 26 27  1  0  0  0  0
 26 51  1  0  0  0  0
 27 28  2  0  0  0  0
 27 33  1  0  0  0  0
 28 29  1  0  0  0  0
 28 52  1  0  0  0  0
 29 30  2  0  0  0  0
 29 53  1  0  0  0  0
 30 31  1  0  0  0  0
 30 32  1  0  0  0  0
 32 33  2  0  0  0  0
 32 54  1  0  0  0  0
 33 55  1  0  0  0  0
M  END
$$$$
