2D_structures\o19_MMV1580848_2D.pdb
 OpenBabel02272408253D

 47 50  0  0  0  0  0  0  0  0999 V2000
   -5.2540    1.9800    0.0000 N   0  0  0  0  0  0  0  0  0  0  0  0
   -4.0250    1.1200    0.0000 C   0  0  0  0  0  0  0  0  0  0  0  0
   -4.2840    0.3660    0.0000 O   0  0  0  0  0  0  0  0  0  0  0  0
   -2.6650    1.7550    0.0000 C   0  0  0  0  0  0  0  0  0  0  0  0
   -2.5360    3.2490    0.0000 C   0  0  0  0  0  0  0  0  0  0  0  0
   -1.1760    3.8840    0.0000 N   0  0  0  0  0  0  0  0  0  0  0  0
    0.0530    3.0240    0.0000 C   0  0  0  0  0  0  0  0  0  0  0  0
    1.4120    3.6590    0.0000 C   0  0  0  0  0  0  0  0  0  0  0  0
    2.6410    2.7990    0.0000 C   0  0  0  0  0  0  0  0  0  0  0  0
    2.5110    1.3050    0.0000 C   0  0  0  0  0  0  0  0  0  0  0  0
    1.1520    0.6700    0.0000 C   0  0  0  0  0  0  0  0  0  0  0  0
   -0.0770    1.5300    0.0000 C   0  0  0  0  0  0  0  0  0  0  0  0
   -1.4360    0.8950    0.0000 C   0  0  0  0  0  0  0  0  0  0  0  0
   -1.5660   -0.5990    0.0000 N   0  0  0  0  0  0  0  0  0  0  0  0
   -2.9250   -1.2340    0.0000 C   0  0  0  0  0  0  0  0  0  0  0  0
   -4.1540   -0.3740    0.0000 C   0  0  0  0  0  0  0  0  0  0  0  0
   -5.5130   -1.0090    0.0000 C   0  0  0  0  0  0  0  0  0  0  0  0
   -5.6430   -2.5030    0.0000 C   0  0  0  0  0  0  0  0  0  0  0  0
   -7.0020   -3.1380    0.0000 O   0  0  0  0  0  0  0  0  0  0  0  0
   -4.4140   -3.3630    0.0000 C   0  0  0  0  0  0  0  0  0  0  0  0
   -3.0550   -2.7280    0.0000 C   0  0  0  0  0  0  0  0  0  0  0  0
    3.7400    0.4450    0.0000 S   0  0  0  0  0  0  0  0  0  0  0  0
    2.8810   -0.7840    0.0000 O   0  0  0  0  0  0  0  0  0  0  0  0
    4.6000    1.6740    0.0000 O   0  0  0  0  0  0  0  0  0  0  0  0
    4.9700   -0.4140    0.0000 C   0  0  0  0  0  0  0  0  0  0  0  0
    4.8400   -1.9090    0.0000 C   0  0  0  0  0  0  0  0  0  0  0  0
    6.0690   -2.7680    0.0000 C   0  0  0  0  0  0  0  0  0  0  0  0
    7.4280   -2.1340    0.0000 C   0  0  0  0  0  0  0  0  0  0  0  0
    7.5580   -0.6390    0.0000 C   0  0  0  0  0  0  0  0  0  0  0  0
    6.3290    0.2200    0.0000 C   0  0  0  0  0  0  0  0  0  0  0  0
   -6.6130    1.3450    0.0000 H   0  0  0  0  0  0  0  0  0  0  0  0
   -5.1240    3.4740    0.0000 H   0  0  0  0  0  0  0  0  0  0  0  0
   -3.7650    4.1090    0.0000 H   0  0  0  0  0  0  0  0  0  0  0  0
    1.5420    5.1530    0.0000 H   0  0  0  0  0  0  0  0  0  0  0  0
    4.0000    3.4340    0.0000 H   0  0  0  0  0  0  0  0  0  0  0  0
    1.0220   -0.8240    0.0000 H   0  0  0  0  0  0  0  0  0  0  0  0
   -0.3370   -1.4590    0.0000 H   0  0  0  0  0  0  0  0  0  0  0  0
   -4.3900    1.1070    0.0000 H   0  0  0  0  0  0  0  0  0  0  0  0
   -6.7430   -0.1490    0.0000 H   0  0  0  0  0  0  0  0  0  0  0  0
   -7.1320   -4.6320    0.0000 H   0  0  0  0  0  0  0  0  0  0  0  0
   -4.5440   -4.8570    0.0000 H   0  0  0  0  0  0  0  0  0  0  0  0
   -1.8260   -3.5880    0.0000 H   0  0  0  0  0  0  0  0  0  0  0  0
    3.4810   -2.5430    0.0000 H   0  0  0  0  0  0  0  0  0  0  0  0
    5.9390   -4.2630    0.0000 H   0  0  0  0  0  0  0  0  0  0  0  0
    8.6570   -2.9930    0.0000 H   0  0  0  0  0  0  0  0  0  0  0  0
    8.9170   -0.0050    0.0000 H   0  0  0  0  0  0  0  0  0  0  0  0
    6.4590    1.7150    0.0000 H   0  0  0  0  0  0  0  0  0  0  0  0
  1  2  1  0  0  0  0
  1 31  1  0  0  0  0
  1 32  1  0  0  0  0
  2  3  2  0  0  0  0
  2  4  1  0  0  0  0
  4  5  2  0  0  0  0
  4 13  1  0  0  0  0
  5  6  1  0  0  0  0
  5 33  1  0  0  0  0
  6  7  2  0  0  0  0
  7  8  1  0  0  0  0
  7 12  1  0  0  0  0
  8  9  2  0  0  0  0
  8 34  1  0  0  0  0
  9 10  1  0  0  0  0
  9 35  1  0  0  0  0
 10 11  2  0  0  0  0
 10 22  1  0  0  0  0
 11 12  1  0  0  0  0
 11 36  1  0  0  0  0
 12 13  2  0  0  0  0
 13 14  1  0  0  0  0
 14 15  1  0  0  0  0
 14 37  1  0  0  0  0
 15 16  2  0  0  0  0
 15 21  1  0  0  0  0
 16 17  1  0  0  0  0
 16 38  1  0  0  0  0
 17 18  2  0  0  0  0
 17 39  1  0  0  0  0
 18 19  1  0  0  0  0
 18 20  1  0  0  0  0
 19 40  1  0  0  0  0
 20 21  2  0  0  0  0
 20 41  1  0  0  0  0
 21 42  1  0  0  0  0
 22 23  2  0  0  0  0
 22 24  2  0  0  0  0
 22 25  1  0  0  0  0
 25 26  2  0  0  0  0
 25 30  1  0  0  0  0
 26 27  1  0  0  0  0
 26 43  1  0  0  0  0
 27 28  2  0  0  0  0
 27 44  1  0  0  0  0
 28 29  1  0  0  0  0
 28 45  1  0  0  0  0
 29 30  2  0  0  0  0
 29 46  1  0  0  0  0
 30 47  1  0  0  0  0
M  END
$$$$
