2D_structures\o20_MMV1580842_2D.pdb
 OpenBabel02272408253D

 61 65  0  0  0  0  0  0  0  0999 V2000
    5.3960    6.6990    0.0000 Cl  0  0  0  0  0  0  0  0  0  0  0  0
    4.7650    5.3380    0.0000 C   0  0  0  0  0  0  0  0  0  0  0  0
    5.6270    4.1110    0.0000 C   0  0  0  0  0  0  0  0  0  0  0  0
    4.9950    2.7510    0.0000 C   0  0  0  0  0  0  0  0  0  0  0  0
    5.5830    1.3710    0.0000 N   0  0  0  0  0  0  0  0  0  0  0  0
    4.4520    0.3850    0.0000 C   0  0  0  0  0  0  0  0  0  0  0  0
    4.5850   -1.1090    0.0000 C   0  0  0  0  0  0  0  0  0  0  0  0
    6.0340   -0.7190    0.0000 C   0  0  0  0  0  0  0  0  0  0  0  0
    7.0960   -1.7780    0.0000 C   0  0  0  0  0  0  0  0  0  0  0  0
    6.7100   -3.2270    0.0000 N   0  0  0  0  0  0  0  0  0  0  0  0
    5.2620   -3.6180    0.0000 C   0  0  0  0  0  0  0  0  0  0  0  0
    4.1990   -2.5590    0.0000 C   0  0  0  0  0  0  0  0  0  0  0  0
    3.1660    1.1560    0.0000 N   0  0  0  0  0  0  0  0  0  0  0  0
    1.7860    0.5670    0.0000 C   0  0  0  0  0  0  0  0  0  0  0  0
    0.4060   -0.0210    0.0000 C   0  0  0  0  0  0  0  0  0  0  0  0
   -0.7930    0.8800    0.0000 C   0  0  0  0  0  0  0  0  0  0  0  0
   -2.1730    0.2920    0.0000 C   0  0  0  0  0  0  0  0  0  0  0  0
   -2.3540   -1.1970    0.0000 C   0  0  0  0  0  0  0  0  0  0  0  0
   -3.7340   -1.7850    0.0000 C   0  0  0  0  0  0  0  0  0  0  0  0
   -5.1140   -2.3740    0.0000 N   0  0  0  0  0  0  0  0  0  0  0  0
   -6.3130   -1.4730    0.0000 C   0  0  0  0  0  0  0  0  0  0  0  0
   -7.5120   -0.5720    0.0000 C   0  0  0  0  0  0  0  0  0  0  0  0
   -8.7120    0.3290    0.0000 C   0  0  0  0  0  0  0  0  0  0  0  0
  -10.1450   -0.1120    0.0000 C   0  0  0  0  0  0  0  0  0  0  0  0
  -11.0080    1.1160    0.0000 N   0  0  0  0  0  0  0  0  0  0  0  0
  -10.1070    2.3150    0.0000 C   0  0  0  0  0  0  0  0  0  0  0  0
   -8.6880    1.8290    0.0000 N   0  0  0  0  0  0  0  0  0  0  0  0
   -1.1550   -2.0980    0.0000 C   0  0  0  0  0  0  0  0  0  0  0  0
    0.2250   -1.5100    0.0000 C   0  0  0  0  0  0  0  0  0  0  0  0
    3.5010    2.6180    0.0000 C   0  0  0  0  0  0  0  0  0  0  0  0
    2.6390    3.8450    0.0000 C   0  0  0  0  0  0  0  0  0  0  0  0
    3.2700    5.2050    0.0000 C   0  0  0  0  0  0  0  0  0  0  0  0
    2.4080    6.4330    0.0000 Cl  0  0  0  0  0  0  0  0  0  0  0  0
    7.1210    4.2440    0.0000 H   0  0  0  0  0  0  0  0  0  0  0  0
    3.3710   -1.1530    0.0000 H   0  0  0  0  0  0  0  0  0  0  0  0
    7.2610    0.1440    0.0000 H   0  0  0  0  0  0  0  0  0  0  0  0
    5.8000    0.4740    0.0000 H   0  0  0  0  0  0  0  0  0  0  0  0
    8.4560   -2.4100    0.0000 H   0  0  0  0  0  0  0  0  0  0  0  0
    7.9550   -0.5480    0.0000 H   0  0  0  0  0  0  0  0  0  0  0  0
    7.7720   -4.2860    0.0000 H   0  0  0  0  0  0  0  0  0  0  0  0
    4.0340   -4.4800    0.0000 H   0  0  0  0  0  0  0  0  0  0  0  0
    5.8980   -4.9760    0.0000 H   0  0  0  0  0  0  0  0  0  0  0  0
    3.0970   -2.0470    0.0000 H   0  0  0  0  0  0  0  0  0  0  0  0
    3.3410   -3.7890    0.0000 H   0  0  0  0  0  0  0  0  0  0  0  0
    2.2010   -0.8740    0.0000 H   0  0  0  0  0  0  0  0  0  0  0  0
    1.1980    1.9470    0.0000 H   0  0  0  0  0  0  0  0  0  0  0  0
   -0.6130    2.3690    0.0000 H   0  0  0  0  0  0  0  0  0  0  0  0
   -3.3730    1.1930    0.0000 H   0  0  0  0  0  0  0  0  0  0  0  0
   -3.1460   -3.1650    0.0000 H   0  0  0  0  0  0  0  0  0  0  0  0
   -4.3220   -0.4050    0.0000 H   0  0  0  0  0  0  0  0  0  0  0  0
   -5.2940   -3.8630    0.0000 H   0  0  0  0  0  0  0  0  0  0  0  0
   -5.4120   -0.2730    0.0000 H   0  0  0  0  0  0  0  0  0  0  0  0
   -7.2140   -2.6720    0.0000 H   0  0  0  0  0  0  0  0  0  0  0  0
   -8.4130   -1.7710    0.0000 H   0  0  0  0  0  0  0  0  0  0  0  0
   -6.6110    0.6280    0.0000 H   0  0  0  0  0  0  0  0  0  0  0  0
  -10.6320   -1.5310    0.0000 H   0  0  0  0  0  0  0  0  0  0  0  0
  -10.5470    3.7490    0.0000 H   0  0  0  0  0  0  0  0  0  0  0  0
   -7.4600    2.6910    0.0000 H   0  0  0  0  0  0  0  0  0  0  0  0
   -1.3350   -3.5870    0.0000 H   0  0  0  0  0  0  0  0  0  0  0  0
    1.4250   -2.4110    0.0000 H   0  0  0  0  0  0  0  0  0  0  0  0
    1.1440    3.7120    0.0000 H   0  0  0  0  0  0  0  0  0  0  0  0
  1  2  1  0  0  0  0
  2  3  2  0  0  0  0
  2 32  1  0  0  0  0
  3  4  1  0  0  0  0
  3 34  1  0  0  0  0
  4  5  1  0  0  0  0
  4 30  2  0  0  0  0
  5  6  2  0  0  0  0
  6  7  1  0  0  0  0
  6 13  1  0  0  0  0
  7  8  1  0  0  0  0
  7 12  1  0  0  0  0
  7 35  1  0  0  0  0
  8  9  1  0  0  0  0
  8 36  1  0  0  0  0
  8 37  1  0  0  0  0
  9 10  1  0  0  0  0
  9 38  1  0  0  0  0
  9 39  1  0  0  0  0
 10 11  1  0  0  0  0
 10 40  1  0  0  0  0
 11 12  1  0  0  0  0
 11 41  1  0  0  0  0
 11 42  1  0  0  0  0
 12 43  1  0  0  0  0
 12 44  1  0  0  0  0
 13 14  1  0  0  0  0
 13 30  1  0  0  0  0
 14 15  1  0  0  0  0
 14 45  1  0  0  0  0
 14 46  1  0  0  0  0
 15 16  2  0  0  0  0
 15 29  1  0  0  0  0
 16 17  1  0  0  0  0
 16 47  1  0  0  0  0
 17 18  2  0  0  0  0
 17 48  1  0  0  0  0
 18 19  1  0  0  0  0
 18 28  1  0  0  0  0
 19 20  1  0  0  0  0
 19 49  1  0  0  0  0
 19 50  1  0  0  0  0
 20 21  1  0  0  0  0
 20 51  1  0  0  0  0
 21 22  1  0  0  0  0
 21 52  1  0  0  0  0
 21 53  1  0  0  0  0
 22 23  1  0  0  0  0
 22 54  1  0  0  0  0
 22 55  1  0  0  0  0
 23 24  2  0  0  0  0
 23 27  1  0  0  0  0
 24 25  1  0  0  0  0
 24 56  1  0  0  0  0
 25 26  2  0  0  0  0
 26 27  1  0  0  0  0
 26 57  1  0  0  0  0
 27 58  1  0  0  0  0
 28 29  2  0  0  0  0
 28 59  1  0  0  0  0
 29 60  1  0  0  0  0
 30 31  1  0  0  0  0
 31 32  2  0  0  0  0
 31 61  1  0  0  0  0
 32 33  1  0  0  0  0
M  END
$$$$
