2D_structures\o21_MMV1580840_2D.pdb
 OpenBabel02272408253D

 45 46  0  0  0  0  0  0  0  0999 V2000
    7.5000   -4.2390    0.0000 F   0  0  0  0  0  0  0  0  0  0  0  0
    6.7500   -2.9400    0.0000 C   0  0  0  0  0  0  0  0  0  0  0  0
    5.4510   -3.6900    0.0000 F   0  0  0  0  0  0  0  0  0  0  0  0
    8.0490   -2.1900    0.0000 F   0  0  0  0  0  0  0  0  0  0  0  0
    6.0000   -1.6400    0.0000 C   0  0  0  0  0  0  0  0  0  0  0  0
    4.5000   -1.6400    0.0000 C   0  0  0  0  0  0  0  0  0  0  0  0
    3.7500   -0.3410    0.0000 C   0  0  0  0  0  0  0  0  0  0  0  0
    2.2500   -0.3410    0.0000 N   0  0  0  0  0  0  0  0  0  0  0  0
    1.5000    0.9580    0.0000 C   0  0  0  0  0  0  0  0  0  0  0  0
    2.4030    2.1560    0.0000 O   0  0  0  0  0  0  0  0  0  0  0  0
    0.0000    0.9580    0.0000 C   0  0  0  0  0  0  0  0  0  0  0  0
    0.0000    2.4580    0.0000 C   0  0  0  0  0  0  0  0  0  0  0  0
    0.0000    3.9580    0.0000 C   0  0  0  0  0  0  0  0  0  0  0  0
   -0.0000    5.4580    0.0000 Cl  0  0  0  0  0  0  0  0  0  0  0  0
   -1.5000    0.9580    0.0000 C   0  0  0  0  0  0  0  0  0  0  0  0
   -2.4030    2.1560    0.0000 O   0  0  0  0  0  0  0  0  0  0  0  0
   -2.2500   -0.3410    0.0000 N   0  0  0  0  0  0  0  0  0  0  0  0
   -3.7500   -0.3410    0.0000 C   0  0  0  0  0  0  0  0  0  0  0  0
   -4.5000    0.9580    0.0000 C   0  0  0  0  0  0  0  0  0  0  0  0
   -6.0000    0.9580    0.0000 C   0  0  0  0  0  0  0  0  0  0  0  0
   -6.7500   -0.3410    0.0000 C   0  0  0  0  0  0  0  0  0  0  0  0
   -8.2500   -0.3410    0.0000 Cl  0  0  0  0  0  0  0  0  0  0  0  0
   -6.0000   -1.6400    0.0000 C   0  0  0  0  0  0  0  0  0  0  0  0
   -4.5000   -1.6400    0.0000 C   0  0  0  0  0  0  0  0  0  0  0  0
   -6.7500   -2.9400    0.0000 C   0  0  0  0  0  0  0  0  0  0  0  0
   -7.5000   -4.2390    0.0000 F   0  0  0  0  0  0  0  0  0  0  0  0
   -5.4510   -3.6900    0.0000 F   0  0  0  0  0  0  0  0  0  0  0  0
   -8.0490   -2.1900    0.0000 F   0  0  0  0  0  0  0  0  0  0  0  0
    4.5000    0.9580    0.0000 C   0  0  0  0  0  0  0  0  0  0  0  0
    6.0000    0.9580    0.0000 C   0  0  0  0  0  0  0  0  0  0  0  0
    6.7500   -0.3410    0.0000 C   0  0  0  0  0  0  0  0  0  0  0  0
    8.2500   -0.3410    0.0000 Cl  0  0  0  0  0  0  0  0  0  0  0  0
    3.7500   -2.9400    0.0000 H   0  0  0  0  0  0  0  0  0  0  0  0
    1.5000   -1.6400    0.0000 H   0  0  0  0  0  0  0  0  0  0  0  0
    0.0000   -0.5420    0.0000 H   0  0  0  0  0  0  0  0  0  0  0  0
   -1.4890    2.6400    0.0000 H   0  0  0  0  0  0  0  0  0  0  0  0
    1.4890    2.6400    0.0000 H   0  0  0  0  0  0  0  0  0  0  0  0
    1.5000    3.9580    0.0000 H   0  0  0  0  0  0  0  0  0  0  0  0
   -1.5000    3.9580    0.0000 H   0  0  0  0  0  0  0  0  0  0  0  0
   -1.5000   -1.6400    0.0000 H   0  0  0  0  0  0  0  0  0  0  0  0
   -3.7500    2.2570    0.0000 H   0  0  0  0  0  0  0  0  0  0  0  0
   -6.7500    2.2570    0.0000 H   0  0  0  0  0  0  0  0  0  0  0  0
   -3.7500   -2.9400    0.0000 H   0  0  0  0  0  0  0  0  0  0  0  0
    3.7500    2.2570    0.0000 H   0  0  0  0  0  0  0  0  0  0  0  0
    6.7500    2.2570    0.0000 H   0  0  0  0  0  0  0  0  0  0  0  0
  1  2  1  0  0  0  0
  2  3  1  0  0  0  0
  2  4  1  0  0  0  0
  2  5  1  0  0  0  0
  5  6  2  0  0  0  0
  5 31  1  0  0  0  0
  6  7  1  0  0  0  0
  6 33  1  0  0  0  0
  7  8  1  0  0  0  0
  7 29  2  0  0  0  0
  8  9  1  0  0  0  0
  8 34  1  0  0  0  0
  9 10  2  0  0  0  0
  9 11  1  0  0  0  0
 11 12  1  0  0  0  0
 11 15  1  0  0  0  0
 11 35  1  0  0  0  0
 12 13  1  0  0  0  0
 12 36  1  0  0  0  0
 12 37  1  0  0  0  0
 13 14  1  0  0  0  0
 13 38  1  0  0  0  0
 13 39  1  0  0  0  0
 15 16  2  0  0  0  0
 15 17  1  0  0  0  0
 17 18  1  0  0  0  0
 17 40  1  0  0  0  0
 18 19  2  0  0  0  0
 18 24  1  0  0  0  0
 19 20  1  0  0  0  0
 19 41  1  0  0  0  0
 20 21  2  0  0  0  0
 20 42  1  0  0  0  0
 21 22  1  0  0  0  0
 21 23  1  0  0  0  0
 23 24  2  0  0  0  0
 23 25  1  0  0  0  0
 24 43  1  0  0  0  0
 25 26  1  0  0  0  0
 25 27  1  0  0  0  0
 25 28  1  0  0  0  0
 29 30  1  0  0  0  0
 29 44  1  0  0  0  0
 30 31  2  0  0  0  0
 30 45  1  0  0  0  0
 31 32  1  0  0  0  0
M  END
$$$$
