2D_structures\o22_MMV046261_2D.pdb
 OpenBabel02272408253D

 19 20  0  0  0  0  0  0  0  0999 V2000
   -4.6300    0.4720    0.0000 N   0  0  0  0  0  0  0  0  0  0  0  0
   -3.2730   -0.1680    0.0000 C   0  0  0  0  0  0  0  0  0  0  0  0
   -2.9930   -1.6420    0.0000 N   0  0  0  0  0  0  0  0  0  0  0  0
   -1.5050   -1.8310    0.0000 N   0  0  0  0  0  0  0  0  0  0  0  0
   -0.8660   -0.4740    0.0000 C   0  0  0  0  0  0  0  0  0  0  0  0
   -1.9580    0.5540    0.0000 S   0  0  0  0  0  0  0  0  0  0  0  0
    0.6080   -0.1940    0.0000 C   0  0  0  0  0  0  0  0  0  0  0  0
    1.5870   -1.3300    0.0000 C   0  0  0  0  0  0  0  0  0  0  0  0
    3.0610   -1.0500    0.0000 C   0  0  0  0  0  0  0  0  0  0  0  0
    3.5550    0.3660    0.0000 C   0  0  0  0  0  0  0  0  0  0  0  0
    5.0290    0.6460    0.0000 Cl  0  0  0  0  0  0  0  0  0  0  0  0
    2.5760    1.5020    0.0000 C   0  0  0  0  0  0  0  0  0  0  0  0
    1.1020    1.2220    0.0000 C   0  0  0  0  0  0  0  0  0  0  0  0
   -4.7550    1.9660    0.0000 H   0  0  0  0  0  0  0  0  0  0  0  0
   -5.8630   -0.3840    0.0000 H   0  0  0  0  0  0  0  0  0  0  0  0
    1.0930   -2.7460    0.0000 H   0  0  0  0  0  0  0  0  0  0  0  0
    4.0400   -2.1860    0.0000 H   0  0  0  0  0  0  0  0  0  0  0  0
    3.0700    2.9180    0.0000 H   0  0  0  0  0  0  0  0  0  0  0  0
    0.1230    2.3580    0.0000 H   0  0  0  0  0  0  0  0  0  0  0  0
  1  2  1  0  0  0  0
  1 14  1  0  0  0  0
  1 15  1  0  0  0  0
  2  3  2  0  0  0  0
  2  6  1  0  0  0  0
  3  4  1  0  0  0  0
  4  5  2  0  0  0  0
  5  6  1  0  0  0  0
  5  7  1  0  0  0  0
  7  8  2  0  0  0  0
  7 13  1  0  0  0  0
  8  9  1  0  0  0  0
  8 16  1  0  0  0  0
  9 10  2  0  0  0  0
  9 17  1  0  0  0  0
 10 11  1  0  0  0  0
 10 12  1  0  0  0  0
 12 13  2  0  0  0  0
 12 18  1  0  0  0  0
 13 19  1  0  0  0  0
M  END
$$$$
