2D_structures\o23_MMV1579846_2D.pdb
 OpenBabel02272408253D

 40 41  0  0  0  0  0  0  0  0999 V2000
    2.5440   -3.4820    0.0000 C   0  0  0  0  0  0  0  0  0  0  0  0
    3.2140   -2.1390    0.0000 O   0  0  0  0  0  0  0  0  0  0  0  0
    2.3860   -0.8880    0.0000 C   0  0  0  0  0  0  0  0  0  0  0  0
    0.8880   -0.9800    0.0000 C   0  0  0  0  0  0  0  0  0  0  0  0
    0.0610    0.2710    0.0000 C   0  0  0  0  0  0  0  0  0  0  0  0
   -1.4370    0.1790    0.0000 C   0  0  0  0  0  0  0  0  0  0  0  0
   -2.9340    0.0870    0.0000 C   0  0  0  0  0  0  0  0  0  0  0  0
   -3.7620    1.3380    0.0000 C   0  0  0  0  0  0  0  0  0  0  0  0
   -5.2590    1.2470    0.0000 C   0  0  0  0  0  0  0  0  0  0  0  0
   -6.0870    2.4970    0.0000 N   0  0  0  0  0  0  0  0  0  0  0  0
   -5.9280   -0.0960    0.0000 N   0  0  0  0  0  4  0  0  0  0  0  0
   -5.1000   -1.3470    0.0000 C   0  0  0  0  0  0  0  0  0  0  0  0
   -5.7700   -2.6890    0.0000 N   0  0  0  0  0  0  0  0  0  0  0  0
   -3.6030   -1.2550    0.0000 N   0  0  0  0  0  0  0  0  0  0  0  0
    0.7300    1.6130    0.0000 C   0  0  0  0  0  0  0  0  0  0  0  0
    2.2270    1.7050    0.0000 C   0  0  0  0  0  0  0  0  0  0  0  0
    2.8960    3.0470    0.0000 O   0  0  0  0  0  0  0  0  0  0  0  0
    4.3930    3.1390    0.0000 C   0  0  0  0  0  0  0  0  0  0  0  0
    3.0550    0.4540    0.0000 C   0  0  0  0  0  0  0  0  0  0  0  0
    4.5520    0.5460    0.0000 O   0  0  0  0  0  0  0  0  0  0  0  0
    5.3800   -0.7050    0.0000 C   0  0  0  0  0  0  0  0  0  0  0  0
    1.8750   -4.8240    0.0000 H   0  0  0  0  0  0  0  0  0  0  0  0
    3.8870   -4.1510    0.0000 H   0  0  0  0  0  0  0  0  0  0  0  0
    1.2020   -2.8120    0.0000 H   0  0  0  0  0  0  0  0  0  0  0  0
    0.2190   -2.3230    0.0000 H   0  0  0  0  0  0  0  0  0  0  0  0
   -1.5280    1.6760    0.0000 H   0  0  0  0  0  0  0  0  0  0  0  0
   -1.3450   -1.3180    0.0000 H   0  0  0  0  0  0  0  0  0  0  0  0
   -3.0930    2.6810    0.0000 H   0  0  0  0  0  0  0  0  0  0  0  0
   -7.5840    2.4060    0.0000 H   0  0  0  0  0  0  0  0  0  0  0  0
   -5.4180    3.8400    0.0000 H   0  0  0  0  0  0  0  0  0  0  0  0
   -7.2670   -2.7810    0.0000 H   0  0  0  0  0  0  0  0  0  0  0  0
   -4.9420   -3.9400    0.0000 H   0  0  0  0  0  0  0  0  0  0  0  0
   -0.0980    2.8640    0.0000 H   0  0  0  0  0  0  0  0  0  0  0  0
    5.8910    3.2300    0.0000 H   0  0  0  0  0  0  0  0  0  0  0  0
    4.3020    4.6360    0.0000 H   0  0  0  0  0  0  0  0  0  0  0  0
    4.4850    1.6420    0.0000 H   0  0  0  0  0  0  0  0  0  0  0  0
    6.2080   -1.9560    0.0000 H   0  0  0  0  0  0  0  0  0  0  0  0
    6.6310    0.1230    0.0000 H   0  0  0  0  0  0  0  0  0  0  0  0
    4.1290   -1.5330    0.0000 H   0  0  0  0  0  0  0  0  0  0  0  0
   -3.0595   -2.0759    0.0000 H   0  0  0  0  0  0  0  0  0  0  0  0
  1  2  1  0  0  0  0
  1 22  1  0  0  0  0
  1 23  1  0  0  0  0
  1 24  1  0  0  0  0
  2  3  1  0  0  0  0
  3  4  2  0  0  0  0
  3 19  1  0  0  0  0
  4  5  1  0  0  0  0
  4 25  1  0  0  0  0
  5  6  1  0  0  0  0
  5 15  2  0  0  0  0
  6  7  1  0  0  0  0
  6 26  1  0  0  0  0
  6 27  1  0  0  0  0
  7  8  2  0  0  0  0
  7 14  1  0  0  0  0
  8  9  1  0  0  0  0
  8 28  1  0  0  0  0
  9 10  1  0  0  0  0
  9 11  2  0  0  0  0
 10 29  1  0  0  0  0
 10 30  1  0  0  0  0
 11 12  2  0  0  0  0
 12 13  1  0  0  0  0
 12 14  1  0  0  0  0
 13 31  1  0  0  0  0
 13 32  1  0  0  0  0
 14 40  1  0  0  0  0
 15 16  1  0  0  0  0
 15 33  1  0  0  0  0
 16 17  1  0  0  0  0
 16 19  2  0  0  0  0
 17 18  1  0  0  0  0
 18 34  1  0  0  0  0
 18 35  1  0  0  0  0
 18 36  1  0  0  0  0
 19 20  1  0  0  0  0
 20 21  1  0  0  0  0
 21 37  1  0  0  0  0
 21 38  1  0  0  0  0
 21 39  1  0  0  0  0
M  END
$$$$
