2D_structures\o24_MMV1578842_2D.pdb
 OpenBabel02272408253D

 62 64  0  0  0  0  0  0  0  0999 V2000
    3.8180    7.4690    0.0000 C   0  0  0  0  0  0  0  0  0  0  0  0
    3.4510    6.0150    0.0000 C   0  0  0  0  0  0  0  0  0  0  0  0
    3.0840    4.5600    0.0000 C   0  0  0  0  0  0  0  0  0  0  0  0
    2.7170    3.1060    0.0000 C   0  0  0  0  0  0  0  0  0  0  0  0
    2.3500    1.6510    0.0000 O   0  0  0  0  0  0  0  0  0  0  0  0
    3.4260    0.6060    0.0000 C   0  0  0  0  0  0  0  0  0  0  0  0
    4.8700    1.0160    0.0000 O   0  0  0  0  0  0  0  0  0  0  0  0
    3.0590   -0.8480    0.0000 N   0  0  0  0  0  0  0  0  0  0  0  0
    1.6160   -1.2580    0.0000 C   0  0  0  0  0  0  0  0  0  0  0  0
    0.5400   -0.2130    0.0000 C   0  0  0  0  0  0  0  0  0  0  0  0
   -0.9030   -0.6220    0.0000 C   0  0  0  0  0  0  0  0  0  0  0  0
   -1.2700   -2.0760    0.0000 C   0  0  0  0  0  0  0  0  0  0  0  0
   -0.1940   -3.1210    0.0000 C   0  0  0  0  0  0  0  0  0  0  0  0
    1.2490   -2.7120    0.0000 C   0  0  0  0  0  0  0  0  0  0  0  0
    2.3260   -3.7570    0.0000 N   0  0  0  0  0  0  0  0  0  0  0  0
    3.7690   -3.3480    0.0000 C   0  0  0  0  0  0  0  0  0  0  0  0
    5.2120   -2.9380    0.0000 C   0  0  0  0  0  0  0  0  0  0  0  0
    1.9590   -5.2110    0.0000 C   0  0  0  0  0  0  0  0  0  0  0  0
    1.5920   -6.6660    0.0000 C   0  0  0  0  0  0  0  0  0  0  0  0
   -2.7660   -2.1770    0.0000 N   0  0  0  0  0  0  0  0  0  0  0  0
   -3.3240   -0.7840    0.0000 C   0  0  0  0  0  0  0  0  0  0  0  0
   -2.1730    0.1760    0.0000 N   0  0  0  0  0  0  0  0  0  0  0  0
   -4.7790   -0.4180    0.0000 C   0  0  0  0  0  0  0  0  0  0  0  0
   -4.1650    0.9510    0.0000 C   0  0  0  0  0  0  0  0  0  0  0  0
   -5.0430    2.1670    0.0000 C   0  0  0  0  0  0  0  0  0  0  0  0
   -6.5350    2.0140    0.0000 C   0  0  0  0  0  0  0  0  0  0  0  0
   -7.1490    0.6460    0.0000 C   0  0  0  0  0  0  0  0  0  0  0  0
   -6.2710   -0.5700    0.0000 C   0  0  0  0  0  0  0  0  0  0  0  0
    4.1850    8.9230    0.0000 H   0  0  0  0  0  0  0  0  0  0  0  0
    5.2730    7.1020    0.0000 H   0  0  0  0  0  0  0  0  0  0  0  0
    2.3640    7.8360    0.0000 H   0  0  0  0  0  0  0  0  0  0  0  0
    4.9060    5.6480    0.0000 H   0  0  0  0  0  0  0  0  0  0  0  0
    1.9970    6.3810    0.0000 H   0  0  0  0  0  0  0  0  0  0  0  0
    1.6300    4.9270    0.0000 H   0  0  0  0  0  0  0  0  0  0  0  0
    4.5390    4.1930    0.0000 H   0  0  0  0  0  0  0  0  0  0  0  0
    4.1720    2.7390    0.0000 H   0  0  0  0  0  0  0  0  0  0  0  0
    1.2630    3.4730    0.0000 H   0  0  0  0  0  0  0  0  0  0  0  0
    4.1360   -1.8930    0.0000 H   0  0  0  0  0  0  0  0  0  0  0  0
    0.9070    1.2420    0.0000 H   0  0  0  0  0  0  0  0  0  0  0  0
   -0.5610   -4.5760    0.0000 H   0  0  0  0  0  0  0  0  0  0  0  0
    3.1860   -1.9650    0.0000 H   0  0  0  0  0  0  0  0  0  0  0  0
    4.1780   -4.7910    0.0000 H   0  0  0  0  0  0  0  0  0  0  0  0
    6.6550   -2.5290    0.0000 H   0  0  0  0  0  0  0  0  0  0  0  0
    4.9810   -1.4560    0.0000 H   0  0  0  0  0  0  0  0  0  0  0  0
    5.6210   -4.3810    0.0000 H   0  0  0  0  0  0  0  0  0  0  0  0
    0.5040   -4.8440    0.0000 H   0  0  0  0  0  0  0  0  0  0  0  0
    3.4130   -5.5780    0.0000 H   0  0  0  0  0  0  0  0  0  0  0  0
    1.2250   -8.1200    0.0000 H   0  0  0  0  0  0  0  0  0  0  0  0
    3.0460   -7.0330    0.0000 H   0  0  0  0  0  0  0  0  0  0  0  0
    0.1370   -6.2990    0.0000 H   0  0  0  0  0  0  0  0  0  0  0  0
   -3.5650   -3.4470    0.0000 H   0  0  0  0  0  0  0  0  0  0  0  0
   -4.8880   -1.9140    0.0000 H   0  0  0  0  0  0  0  0  0  0  0  0
   -3.1200    2.0270    0.0000 H   0  0  0  0  0  0  0  0  0  0  0  0
   -3.0240    0.5320    0.0000 H   0  0  0  0  0  0  0  0  0  0  0  0
   -5.4520    3.6100    0.0000 H   0  0  0  0  0  0  0  0  0  0  0  0
   -3.6930    2.8210    0.0000 H   0  0  0  0  0  0  0  0  0  0  0  0
   -7.9900    2.3810    0.0000 H   0  0  0  0  0  0  0  0  0  0  0  0
   -6.4260    3.5110    0.0000 H   0  0  0  0  0  0  0  0  0  0  0  0
   -8.1940   -0.4300    0.0000 H   0  0  0  0  0  0  0  0  0  0  0  0
   -8.3900    1.4880    0.0000 H   0  0  0  0  0  0  0  0  0  0  0  0
   -5.8620   -2.0130    0.0000 H   0  0  0  0  0  0  0  0  0  0  0  0
   -7.6210   -1.2240    0.0000 H   0  0  0  0  0  0  0  0  0  0  0  0
  1  2  1  0  0  0  0
  1 29  1  0  0  0  0
  1 30  1  0  0  0  0
  1 31  1  0  0  0  0
  2  3  1  0  0  0  0
  2 32  1  0  0  0  0
  2 33  1  0  0  0  0
  3  4  1  0  0  0  0
  3 34  1  0  0  0  0
  3 35  1  0  0  0  0
  4  5  1  0  0  0  0
  4 36  1  0  0  0  0
  4 37  1  0  0  0  0
  5  6  1  0  0  0  0
  6  7  2  0  0  0  0
  6  8  1  0  0  0  0
  8  9  1  0  0  0  0
  8 38  1  0  0  0  0
  9 10  2  0  0  0  0
  9 14  1  0  0  0  0
 10 11  1  0  0  0  0
 10 39  1  0  0  0  0
 11 12  2  0  0  0  0
 11 22  1  0  0  0  0
 12 13  1  0  0  0  0
 12 20  1  0  0  0  0
 13 14  2  0  0  0  0
 13 40  1  0  0  0  0
 14 15  1  0  0  0  0
 15 16  1  0  0  0  0
 15 18  1  0  0  0  0
 16 17  1  0  0  0  0
 16 41  1  0  0  0  0
 16 42  1  0  0  0  0
 17 43  1  0  0  0  0
 17 44  1  0  0  0  0
 17 45  1  0  0  0  0
 18 19  1  0  0  0  0
 18 46  1  0  0  0  0
 18 47  1  0  0  0  0
 19 48  1  0  0  0  0
 19 49  1  0  0  0  0
 19 50  1  0  0  0  0
 20 21  1  0  0  0  0
 20 51  1  0  0  0  0
 21 22  2  0  0  0  0
 21 23  1  0  0  0  0
 23 24  1  0  0  0  0
 23 28  1  0  0  0  0
 23 52  1  0  0  0  0
 24 25  1  0  0  0  0
 24 53  1  0  0  0  0
 24 54  1  0  0  0  0
 25 26  1  0  0  0  0
 25 55  1  0  0  0  0
 25 56  1  0  0  0  0
 26 27  1  0  0  0  0
 26 57  1  0  0  0  0
 26 58  1  0  0  0  0
 27 28  1  0  0  0  0
 27 59  1  0  0  0  0
 27 60  1  0  0  0  0
 28 61  1  0  0  0  0
 28 62  1  0  0  0  0
M  END
$$$$
