2D_structures\o26_MMV1579775_2D.pdb
 OpenBabel02272408253D

 39 41  0  0  0  0  0  0  0  0999 V2000
    2.5540   -3.2130    0.0000 O   0  0  0  0  0  0  0  0  0  0  0  0
    1.4260   -2.2240    0.0000 C   0  0  0  0  0  0  0  0  0  0  0  0
    0.0060   -2.7070    0.0000 C   0  0  0  0  0  0  0  0  0  0  0  0
   -1.1220   -1.7180    0.0000 C   0  0  0  0  0  0  0  0  0  0  0  0
   -2.5420   -2.2010    0.0000 O   0  0  0  0  0  0  0  0  0  0  0  0
   -3.6700   -1.2120    0.0000 C   0  0  0  0  0  0  0  0  0  0  0  0
   -4.7990   -0.2240    0.0000 C   0  0  0  0  0  0  0  0  0  0  0  0
   -4.5070    1.2470    0.0000 C   0  0  0  0  0  0  0  0  0  0  0  0
   -5.6350    2.2360    0.0000 C   0  0  0  0  0  0  0  0  0  0  0  0
   -7.0550    1.7530    0.0000 C   0  0  0  0  0  0  0  0  0  0  0  0
   -7.3470    0.2820    0.0000 C   0  0  0  0  0  0  0  0  0  0  0  0
   -6.2190   -0.7070    0.0000 C   0  0  0  0  0  0  0  0  0  0  0  0
   -0.8300   -0.2470    0.0000 C   0  0  0  0  0  0  0  0  0  0  0  0
    0.5900    0.2360    0.0000 C   0  0  0  0  0  0  0  0  0  0  0  0
    1.7180   -0.7530    0.0000 N   0  0  0  0  0  0  0  0  0  0  0  0
    3.1380   -0.2700    0.0000 C   0  0  0  0  0  0  0  0  0  0  0  0
    4.5590    0.2130    0.0000 C   0  0  0  0  0  0  0  0  0  0  0  0
    5.6870   -0.7760    0.0000 C   0  0  0  0  0  0  0  0  0  0  0  0
    7.1070   -0.2930    0.0000 C   0  0  0  0  0  0  0  0  0  0  0  0
    7.3990    1.1780    0.0000 C   0  0  0  0  0  0  0  0  0  0  0  0
    6.2710    2.1670    0.0000 C   0  0  0  0  0  0  0  0  0  0  0  0
    4.8510    1.6840    0.0000 C   0  0  0  0  0  0  0  0  0  0  0  0
   -0.2860   -4.1780    0.0000 H   0  0  0  0  0  0  0  0  0  0  0  0
   -2.6820   -0.0840    0.0000 H   0  0  0  0  0  0  0  0  0  0  0  0
   -4.6590   -2.3410    0.0000 H   0  0  0  0  0  0  0  0  0  0  0  0
   -3.0860    1.7300    0.0000 H   0  0  0  0  0  0  0  0  0  0  0  0
   -5.3430    3.7070    0.0000 H   0  0  0  0  0  0  0  0  0  0  0  0
   -8.1830    2.7420    0.0000 H   0  0  0  0  0  0  0  0  0  0  0  0
   -8.7670   -0.2010    0.0000 H   0  0  0  0  0  0  0  0  0  0  0  0
   -6.5110   -2.1780    0.0000 H   0  0  0  0  0  0  0  0  0  0  0  0
   -1.9580    0.7420    0.0000 H   0  0  0  0  0  0  0  0  0  0  0  0
    0.8820    1.7070    0.0000 H   0  0  0  0  0  0  0  0  0  0  0  0
    2.6560    1.1500    0.0000 H   0  0  0  0  0  0  0  0  0  0  0  0
    3.6210   -1.6900    0.0000 H   0  0  0  0  0  0  0  0  0  0  0  0
    5.3950   -2.2470    0.0000 H   0  0  0  0  0  0  0  0  0  0  0  0
    8.2350   -1.2820    0.0000 H   0  0  0  0  0  0  0  0  0  0  0  0
    8.8190    1.6610    0.0000 H   0  0  0  0  0  0  0  0  0  0  0  0
    6.5630    3.6380    0.0000 H   0  0  0  0  0  0  0  0  0  0  0  0
    3.7230    2.6730    0.0000 H   0  0  0  0  0  0  0  0  0  0  0  0
  1  2  2  0  0  0  0
  2  3  1  0  0  0  0
  2 15  1  0  0  0  0
  3  4  2  0  0  0  0
  3 23  1  0  0  0  0
  4  5  1  0  0  0  0
  4 13  1  0  0  0  0
  5  6  1  0  0  0  0
  6  7  1  0  0  0  0
  6 24  1  0  0  0  0
  6 25  1  0  0  0  0
  7  8  2  0  0  0  0
  7 12  1  0  0  0  0
  8  9  1  0  0  0  0
  8 26  1  0  0  0  0
  9 10  2  0  0  0  0
  9 27  1  0  0  0  0
 10 11  1  0  0  0  0
 10 28  1  0  0  0  0
 11 12  2  0  0  0  0
 11 29  1  0  0  0  0
 12 30  1  0  0  0  0
 13 14  2  0  0  0  0
 13 31  1  0  0  0  0
 14 15  1  0  0  0  0
 14 32  1  0  0  0  0
 15 16  1  0  0  0  0
 16 17  1  0  0  0  0
 16 33  1  0  0  0  0
 16 34  1  0  0  0  0
 17 18  2  0  0  0  0
 17 22  1  0  0  0  0
 18 19  1  0  0  0  0
 18 35  1  0  0  0  0
 19 20  2  0  0  0  0
 19 36  1  0  0  0  0
 20 21  1  0  0  0  0
 20 37  1  0  0  0  0
 21 22  2  0  0  0  0
 21 38  1  0  0  0  0
 22 39  1  0  0  0  0
M  END
$$$$
