2D_structures\o28_MMV1578899_2D.pdb
 OpenBabel02272408253D

 30 30  0  0  0  0  0  0  0  0999 V2000
   -6.6640   -0.1730    0.0000 C   0  0  0  0  0  0  0  0  0  0  0  0
   -5.1780    0.0310    0.0000 C   0  0  0  0  0  0  0  0  0  0  0  0
   -3.6910    0.2350    0.0000 C   0  0  0  0  0  0  0  0  0  0  0  0
   -2.2050    0.4400    0.0000 C   0  0  0  0  0  0  0  0  0  0  0  0
   -1.6390    1.8290    0.0000 O   0  0  0  0  0  0  0  0  0  0  0  0
   -1.2850   -0.7450    0.0000 O   0  0  0  0  0  0  0  0  0  0  0  0
    0.2010   -0.5410    0.0000 C   0  0  0  0  0  0  0  0  0  0  0  0
    1.6870   -0.3360    0.0000 C   0  0  0  0  0  0  0  0  0  0  0  0
    3.1730   -0.1320    0.0000 C   0  0  0  0  0  0  0  0  0  0  0  0
    3.7390    1.2570    0.0000 C   0  0  0  0  0  0  0  0  0  0  0  0
    5.2250    1.4620    0.0000 C   0  0  0  0  0  0  0  0  0  0  0  0
    6.1450    0.2770    0.0000 C   0  0  0  0  0  0  0  0  0  0  0  0
    5.5790   -1.1120    0.0000 C   0  0  0  0  0  0  0  0  0  0  0  0
    4.0930   -1.3170    0.0000 C   0  0  0  0  0  0  0  0  0  0  0  0
   -8.1500   -0.3780    0.0000 H   0  0  0  0  0  0  0  0  0  0  0  0
   -6.8680    1.3130    0.0000 H   0  0  0  0  0  0  0  0  0  0  0  0
   -6.4590   -1.6590    0.0000 H   0  0  0  0  0  0  0  0  0  0  0  0
   -5.3820    1.5170    0.0000 H   0  0  0  0  0  0  0  0  0  0  0  0
   -4.9730   -1.4550    0.0000 H   0  0  0  0  0  0  0  0  0  0  0  0
   -3.8960    1.7210    0.0000 H   0  0  0  0  0  0  0  0  0  0  0  0
   -3.4870   -1.2510    0.0000 H   0  0  0  0  0  0  0  0  0  0  0  0
    0.4050   -2.0270    0.0000 H   0  0  0  0  0  0  0  0  0  0  0  0
   -0.0040    0.9450    0.0000 H   0  0  0  0  0  0  0  0  0  0  0  0
    1.4820    1.1500    0.0000 H   0  0  0  0  0  0  0  0  0  0  0  0
    1.8910   -1.8220    0.0000 H   0  0  0  0  0  0  0  0  0  0  0  0
    2.8190    2.4420    0.0000 H   0  0  0  0  0  0  0  0  0  0  0  0
    5.7910    2.8510    0.0000 H   0  0  0  0  0  0  0  0  0  0  0  0
    7.6310    0.4810    0.0000 H   0  0  0  0  0  0  0  0  0  0  0  0
    6.4990   -2.2970    0.0000 H   0  0  0  0  0  0  0  0  0  0  0  0
    3.5270   -2.7060    0.0000 H   0  0  0  0  0  0  0  0  0  0  0  0
  1  2  1  0  0  0  0
  1 15  1  0  0  0  0
  1 16  1  0  0  0  0
  1 17  1  0  0  0  0
  2  3  1  0  0  0  0
  2 18  1  0  0  0  0
  2 19  1  0  0  0  0
  3  4  1  0  0  0  0
  3 20  1  0  0  0  0
  3 21  1  0  0  0  0
  4  5  2  0  0  0  0
  4  6  1  0  0  0  0
  6  7  1  0  0  0  0
  7  8  1  0  0  0  0
  7 22  1  0  0  0  0
  7 23  1  0  0  0  0
  8  9  1  0  0  0  0
  8 24  1  0  0  0  0
  8 25  1  0  0  0  0
  9 10  2  0  0  0  0
  9 14  1  0  0  0  0
 10 11  1  0  0  0  0
 10 26  1  0  0  0  0
 11 12  2  0  0  0  0
 11 27  1  0  0  0  0
 12 13  1  0  0  0  0
 12 28  1  0  0  0  0
 13 14  2  0  0  0  0
 13 29  1  0  0  0  0
 14 30  1  0  0  0  0
M  END
$$$$
