2D_structures\o31_MMV1578573_2D.pdb
 OpenBabel02272408253D

 43 46  0  0  0  0  0  0  0  0999 V2000
    8.1170    0.6480    0.0000 C   0  0  0  0  0  0  0  0  0  0  0  0
    6.9020    1.5280    0.0000 O   0  0  0  0  0  0  0  0  0  0  0  0
    5.5320    0.9160    0.0000 C   0  0  0  0  0  0  0  0  0  0  0  0
    5.3780   -0.5760    0.0000 C   0  0  0  0  0  0  0  0  0  0  0  0
    4.0080   -1.1880    0.0000 C   0  0  0  0  0  0  0  0  0  0  0  0
    2.7930   -0.3080    0.0000 C   0  0  0  0  0  0  0  0  0  0  0  0
    1.4240   -0.9200    0.0000 S   0  0  0  0  0  0  0  0  0  0  0  0
    0.2090   -0.0400    0.0000 C   0  0  0  0  0  0  0  0  0  0  0  0
   -1.0060    0.8400    0.0000 C   0  0  0  0  0  0  0  0  0  0  0  0
   -0.8510    2.3320    0.0000 O   0  0  0  0  0  0  0  0  0  0  0  0
   -2.3750    0.2280    0.0000 N   0  0  0  0  0  0  0  0  0  0  0  0
   -3.5900    1.1080    0.0000 C   0  0  0  0  0  0  0  0  0  0  0  0
   -3.4350    2.6000    0.0000 C   0  0  0  0  0  0  0  0  0  0  0  0
   -4.6500    3.4800    0.0000 C   0  0  0  0  0  0  0  0  0  0  0  0
   -6.0190    2.8680    0.0000 C   0  0  0  0  0  0  0  0  0  0  0  0
   -6.1740    1.3760    0.0000 C   0  0  0  0  0  0  0  0  0  0  0  0
   -4.9590    0.4960    0.0000 C   0  0  0  0  0  0  0  0  0  0  0  0
   -5.1140   -0.9960    0.0000 S   0  0  0  0  0  0  0  0  0  0  0  0
   -3.8990   -1.8760    0.0000 C   0  0  0  0  0  0  0  0  0  0  0  0
   -4.0540   -3.3680    0.0000 C   0  0  0  0  0  0  0  0  0  0  0  0
   -2.8390   -4.2480    0.0000 C   0  0  0  0  0  0  0  0  0  0  0  0
   -1.4700   -3.6360    0.0000 C   0  0  0  0  0  0  0  0  0  0  0  0
   -1.3150   -2.1440    0.0000 C   0  0  0  0  0  0  0  0  0  0  0  0
   -2.5300   -1.2640    0.0000 C   0  0  0  0  0  0  0  0  0  0  0  0
    2.9480    1.1840    0.0000 C   0  0  0  0  0  0  0  0  0  0  0  0
    4.3180    1.7960    0.0000 C   0  0  0  0  0  0  0  0  0  0  0  0
    9.3310   -0.2320    0.0000 H   0  0  0  0  0  0  0  0  0  0  0  0
    8.9970    1.8630    0.0000 H   0  0  0  0  0  0  0  0  0  0  0  0
    7.2360   -0.5670    0.0000 H   0  0  0  0  0  0  0  0  0  0  0  0
    6.5920   -1.4560    0.0000 H   0  0  0  0  0  0  0  0  0  0  0  0
    3.8530   -2.6800    0.0000 H   0  0  0  0  0  0  0  0  0  0  0  0
    1.0890    1.1750    0.0000 H   0  0  0  0  0  0  0  0  0  0  0  0
   -0.2670   -0.9010    0.0000 H   0  0  0  0  0  0  0  0  0  0  0  0
   -2.0660    3.2120    0.0000 H   0  0  0  0  0  0  0  0  0  0  0  0
   -4.4950    4.9720    0.0000 H   0  0  0  0  0  0  0  0  0  0  0  0
   -7.2340    3.7480    0.0000 H   0  0  0  0  0  0  0  0  0  0  0  0
   -7.5440    0.7640    0.0000 H   0  0  0  0  0  0  0  0  0  0  0  0
   -5.4240   -3.9800    0.0000 H   0  0  0  0  0  0  0  0  0  0  0  0
   -2.9940   -5.7400    0.0000 H   0  0  0  0  0  0  0  0  0  0  0  0
   -0.2550   -4.5160    0.0000 H   0  0  0  0  0  0  0  0  0  0  0  0
   -0.3740   -1.8550    0.0000 H   0  0  0  0  0  0  0  0  0  0  0  0
    1.7330    2.0640    0.0000 H   0  0  0  0  0  0  0  0  0  0  0  0
    4.4720    3.2880    0.0000 H   0  0  0  0  0  0  0  0  0  0  0  0
  1  2  1  0  0  0  0
  1 27  1  0  0  0  0
  1 28  1  0  0  0  0
  1 29  1  0  0  0  0
  2  3  1  0  0  0  0
  3  4  2  0  0  0  0
  3 26  1  0  0  0  0
  4  5  1  0  0  0  0
  4 30  1  0  0  0  0
  5  6  2  0  0  0  0
  5 31  1  0  0  0  0
  6  7  1  0  0  0  0
  6 25  1  0  0  0  0
  7  8  1  0  0  0  0
  8  9  1  0  0  0  0
  8 32  1  0  0  0  0
  8 33  1  0  0  0  0
  9 10  2  0  0  0  0
  9 11  1  0  0  0  0
 11 12  1  0  0  0  0
 11 24  1  0  0  0  0
 12 13  2  0  0  0  0
 12 17  1  0  0  0  0
 13 14  1  0  0  0  0
 13 34  1  0  0  0  0
 14 15  2  0  0  0  0
 14 35  1  0  0  0  0
 15 16  1  0  0  0  0
 15 36  1  0  0  0  0
 16 17  2  0  0  0  0
 16 37  1  0  0  0  0
 17 18  1  0  0  0  0
 18 19  1  0  0  0  0
 19 20  2  0  0  0  0
 19 24  1  0  0  0  0
 20 21  1  0  0  0  0
 20 38  1  0  0  0  0
 21 22  2  0  0  0  0
 21 39  1  0  0  0  0
 22 23  1  0  0  0  0
 22 40  1  0  0  0  0
 23 24  2  0  0  0  0
 23 41  1  0  0  0  0
 25 26  2  0  0  0  0
 25 42  1  0  0  0  0
 26 43  1  0  0  0  0
M  END
$$$$
