2D_structures\o32_MMV1578571_2D.pdb
 OpenBabel02272408253D

 38 39  0  0  0  0  0  0  0  0999 V2000
   -3.7890    1.3570    0.0000 C   0  0  0  0  0  0  0  0  0  0  0  0
   -4.7830    0.2330    0.0000 C   0  0  0  0  0  0  0  0  0  0  0  0
   -5.7760   -0.8910    0.0000 C   0  0  0  0  0  0  0  0  0  0  0  0
   -5.9070    1.2260    0.0000 C   0  0  0  0  0  0  0  0  0  0  0  0
   -3.6590   -0.7600    0.0000 C   0  0  0  0  0  0  0  0  0  0  0  0
   -3.8020   -2.2540    0.0000 O   0  0  0  0  0  0  0  0  0  0  0  0
   -2.4260   -2.8510    0.0000 N   0  0  0  0  0  0  0  0  0  0  0  0
   -1.4330   -1.7270    0.0000 C   0  0  0  0  0  0  0  0  0  0  0  0
   -2.1950   -0.4350    0.0000 C   0  0  0  0  0  0  0  0  0  0  0  0
    0.0610   -1.8700    0.0000 C   0  0  0  0  0  0  0  0  0  0  0  0
    0.6830   -3.2350    0.0000 O   0  0  0  0  0  0  0  0  0  0  0  0
    0.9310   -0.6490    0.0000 C   0  0  0  0  0  0  0  0  0  0  0  0
    2.4240   -0.7920    0.0000 N   0  0  0  0  0  0  0  0  0  0  0  0
    3.2950    0.4300    0.0000 N   0  0  0  0  0  0  0  0  0  0  0  0
    4.7880    0.2870    0.0000 C   0  0  0  0  0  0  0  0  0  0  0  0
    5.4110   -1.0780    0.0000 C   0  0  0  0  0  0  0  0  0  0  0  0
    6.9040   -1.2210    0.0000 C   0  0  0  0  0  0  0  0  0  0  0  0
    7.7740    0.0010    0.0000 C   0  0  0  0  0  0  0  0  0  0  0  0
    7.1510    1.3650    0.0000 C   0  0  0  0  0  0  0  0  0  0  0  0
    8.0220    2.5870    0.0000 Cl  0  0  0  0  0  0  0  0  0  0  0  0
    5.6580    1.5080    0.0000 C   0  0  0  0  0  0  0  0  0  0  0  0
    0.3080    0.7160    0.0000 C   0  0  0  0  0  0  0  0  0  0  0  0
   -0.3140    2.0810    0.0000 N   0  0  0  0  0  0  0  0  0  0  0  0
   -4.3770    2.0200    0.0000 H   0  0  0  0  0  0  0  0  0  0  0  0
   -2.6650    0.3630    0.0000 H   0  0  0  0  0  0  0  0  0  0  0  0
   -2.7960    2.4810    0.0000 H   0  0  0  0  0  0  0  0  0  0  0  0
   -6.5060   -0.3900    0.0000 H   0  0  0  0  0  0  0  0  0  0  0  0
   -4.6520   -1.8840    0.0000 H   0  0  0  0  0  0  0  0  0  0  0  0
   -6.7700   -2.0150    0.0000 H   0  0  0  0  0  0  0  0  0  0  0  0
   -6.5700    0.6390    0.0000 H   0  0  0  0  0  0  0  0  0  0  0  0
   -5.4050    1.9570    0.0000 H   0  0  0  0  0  0  0  0  0  0  0  0
   -7.0310    2.2200    0.0000 H   0  0  0  0  0  0  0  0  0  0  0  0
   -1.5970    0.9410    0.0000 H   0  0  0  0  0  0  0  0  0  0  0  0
    2.6720    1.7950    0.0000 H   0  0  0  0  0  0  0  0  0  0  0  0
    4.5400   -2.2990    0.0000 H   0  0  0  0  0  0  0  0  0  0  0  0
    7.5260   -2.5860    0.0000 H   0  0  0  0  0  0  0  0  0  0  0  0
    9.2670   -0.1420    0.0000 H   0  0  0  0  0  0  0  0  0  0  0  0
    5.0360    2.8730    0.0000 H   0  0  0  0  0  0  0  0  0  0  0  0
  1  2  1  0  0  0  0
  1 24  1  0  0  0  0
  1 25  1  0  0  0  0
  1 26  1  0  0  0  0
  2  3  1  0  0  0  0
  2  4  1  0  0  0  0
  2  5  1  0  0  0  0
  3 27  1  0  0  0  0
  3 28  1  0  0  0  0
  3 29  1  0  0  0  0
  4 30  1  0  0  0  0
  4 31  1  0  0  0  0
  4 32  1  0  0  0  0
  5  6  1  0  0  0  0
  5  9  2  0  0  0  0
  6  7  1  0  0  0  0
  7  8  2  0  0  0  0
  8  9  1  0  0  0  0
  8 10  1  0  0  0  0
  9 33  1  0  0  0  0
 10 11  2  0  0  0  0
 10 12  1  0  0  0  0
 12 13  2  0  0  0  0
 12 22  1  0  0  0  0
 13 14  1  0  0  0  0
 14 15  1  0  0  0  0
 14 34  1  0  0  0  0
 15 16  2  0  0  0  0
 15 21  1  0  0  0  0
 16 17  1  0  0  0  0
 16 35  1  0  0  0  0
 17 18  2  0  0  0  0
 17 36  1  0  0  0  0
 18 19  1  0  0  0  0
 18 37  1  0  0  0  0
 19 20  1  0  0  0  0
 19 21  2  0  0  0  0
 21 38  1  0  0  0  0
 22 23  3  0  0  0  0
M  END
$$$$
