2D_structures\o35_MMV1633966_2D.pdb
 OpenBabel02272408253D

 46 51  0  0  0  0  0  0  0  0999 V2000
    8.2860   -0.0410    0.0000 Cl  0  0  0  0  0  0  0  0  0  0  0  0
    6.9420   -0.7070    0.0000 C   0  0  0  0  0  0  0  0  0  0  0  0
    5.6930    0.1240    0.0000 C   0  0  0  0  0  0  0  0  0  0  0  0
    4.3490   -0.5420    0.0000 C   0  0  0  0  0  0  0  0  0  0  0  0
    4.2540   -2.0390    0.0000 C   0  0  0  0  0  0  0  0  0  0  0  0
    2.8010   -2.4100    0.0000 N   0  0  0  0  0  0  0  0  0  0  0  0
    1.9980   -1.1430    0.0000 C   0  0  0  0  0  0  0  0  0  0  0  0
    2.9550    0.0120    0.0000 C   0  0  0  0  0  0  0  0  0  0  0  0
    2.4330    1.4180    0.0000 C   0  0  0  0  0  0  0  0  0  0  0  0
    0.9540    1.6690    0.0000 C   0  0  0  0  0  0  0  0  0  0  0  0
    0.1520    2.9360    0.0000 C   0  0  0  0  0  0  0  0  0  0  0  0
   -1.3010    2.5640    0.0000 C   0  0  0  0  0  0  0  0  0  0  0  0
   -2.3500    3.6370    0.0000 C   0  0  0  0  0  0  0  0  0  0  0  0
   -1.9460    5.0810    0.0000 C   0  0  0  0  0  0  0  0  0  0  0  0
   -0.4930    5.4530    0.0000 C   0  0  0  0  0  0  0  0  0  0  0  0
    0.5560    4.3810    0.0000 C   0  0  0  0  0  0  0  0  0  0  0  0
   -0.0880    6.8980    0.0000 Cl  0  0  0  0  0  0  0  0  0  0  0  0
   -1.3970    1.0670    0.0000 N   0  0  0  0  0  0  0  0  0  0  0  0
   -0.0030    0.5140    0.0000 C   0  0  0  0  0  0  0  0  0  0  0  0
    0.5190   -0.8920    0.0000 C   0  0  0  0  0  0  0  0  0  0  0  0
   -0.4380   -2.0470    0.0000 O   0  0  0  0  0  0  0  0  0  0  0  0
   -1.9170   -1.7960    0.0000 C   0  0  0  0  0  0  0  0  0  0  0  0
   -3.3950   -1.5450    0.0000 C   0  0  0  0  0  0  0  0  0  0  0  0
   -4.8740   -1.2930    0.0000 N   0  0  0  0  0  0  0  0  0  0  0  0
   -5.5400    0.0510    0.0000 N   0  0  0  0  0  0  0  0  0  0  0  0
   -7.0240   -0.1670    0.0000 N   0  0  0  0  0  0  0  0  0  0  0  0
   -7.2750   -1.6460    0.0000 N   0  0  0  0  0  0  0  0  0  0  0  0
   -5.9470   -2.3420    0.0000 C   0  0  0  0  0  0  0  0  0  0  0  0
   -5.7290   -3.8260    0.0000 N   0  0  0  0  0  0  0  0  0  0  0  0
    5.5030   -2.8700    0.0000 C   0  0  0  0  0  0  0  0  0  0  0  0
    6.8470   -2.2040    0.0000 C   0  0  0  0  0  0  0  0  0  0  0  0
    5.7890    1.6210    0.0000 H   0  0  0  0  0  0  0  0  0  0  0  0
    2.2480   -3.8050    0.0000 H   0  0  0  0  0  0  0  0  0  0  0  0
    3.3900    2.5730    0.0000 H   0  0  0  0  0  0  0  0  0  0  0  0
   -3.8030    3.2650    0.0000 H   0  0  0  0  0  0  0  0  0  0  0  0
   -2.9940    6.1540    0.0000 H   0  0  0  0  0  0  0  0  0  0  0  0
    2.0090    4.7530    0.0000 H   0  0  0  0  0  0  0  0  0  0  0  0
   -2.6170    0.4890    0.0000 H   0  0  0  0  0  0  0  0  0  0  0  0
   -1.6650   -0.3170    0.0000 H   0  0  0  0  0  0  0  0  0  0  0  0
   -2.1680   -3.2750    0.0000 H   0  0  0  0  0  0  0  0  0  0  0  0
   -3.3330   -0.1960    0.0000 H   0  0  0  0  0  0  0  0  0  0  0  0
   -3.6470   -3.0230    0.0000 H   0  0  0  0  0  0  0  0  0  0  0  0
   -6.9050   -4.7570    0.0000 H   0  0  0  0  0  0  0  0  0  0  0  0
   -4.3340   -4.3790    0.0000 H   0  0  0  0  0  0  0  0  0  0  0  0
    5.4070   -4.3670    0.0000 H   0  0  0  0  0  0  0  0  0  0  0  0
    8.0960   -3.0350    0.0000 H   0  0  0  0  0  0  0  0  0  0  0  0
  1  2  1  0  0  0  0
  2  3  2  0  0  0  0
  2 31  1  0  0  0  0
  3  4  1  0  0  0  0
  3 32  1  0  0  0  0
  4  5  2  0  0  0  0
  4  8  1  0  0  0  0
  5  6  1  0  0  0  0
  5 30  1  0  0  0  0
  6  7  1  0  0  0  0
  6 33  1  0  0  0  0
  7  8  2  0  0  0  0
  7 20  1  0  0  0  0
  8  9  1  0  0  0  0
  9 10  2  0  0  0  0
  9 34  1  0  0  0  0
 10 11  1  0  0  0  0
 10 19  1  0  0  0  0
 11 12  2  0  0  0  0
 11 16  1  0  0  0  0
 12 13  1  0  0  0  0
 12 18  1  0  0  0  0
 13 14  2  0  0  0  0
 13 35  1  0  0  0  0
 14 15  1  0  0  0  0
 14 36  1  0  0  0  0
 15 16  2  0  0  0  0
 15 17  1  0  0  0  0
 16 37  1  0  0  0  0
 18 19  1  0  0  0  0
 18 38  1  0  0  0  0
 19 20  2  0  0  0  0
 20 21  1  0  0  0  0
 21 22  1  0  0  0  0
 22 23  1  0  0  0  0
 22 39  1  0  0  0  0
 22 40  1  0  0  0  0
 23 24  1  0  0  0  0
 23 41  1  0  0  0  0
 23 42  1  0  0  0  0
 24 25  1  0  0  0  0
 24 28  1  0  0  0  0
 25 26  2  0  0  0  0
 26 27  1  0  0  0  0
 27 28  2  0  0  0  0
 28 29  1  0  0  0  0
 29 43  1  0  0  0  0
 29 44  1  0  0  0  0
 30 31  2  0  0  0  0
 30 45  1  0  0  0  0
 31 46  1  0  0  0  0
M  END
$$$$
