2D_structures\o37_MMV1593542_2D.pdb
 OpenBabel02272408253D

 42 44  0  0  0  0  0  0  0  0999 V2000
   -8.2550    3.0060    0.0000 O   0  0  0  0  0  0  0  0  0  0  0  0
   -7.1300    2.0140    0.0000 C   0  0  0  0  0  0  0  0  0  0  0  0
   -6.0050    1.0220    0.0000 C   0  0  0  0  0  0  0  0  0  0  0  0
   -4.8800    0.0300    0.0000 C   0  0  0  0  0  0  0  0  0  0  0  0
   -3.7550   -0.9620    0.0000 C   0  0  0  0  0  0  0  0  0  0  0  0
   -2.6300   -1.9540    0.0000 N   0  0  0  0  0  0  0  0  0  0  0  0
   -2.7710   -3.4480    0.0000 C   0  0  0  0  0  0  0  0  0  0  0  0
   -1.3940   -4.0440    0.0000 N   0  0  0  0  0  0  0  0  0  0  0  0
   -0.4020   -2.9190    0.0000 C   0  0  0  0  0  0  0  0  0  0  0  0
    1.0980   -2.9030    0.0000 C   0  0  0  0  0  0  0  0  0  0  0  0
    1.8610   -4.1940    0.0000 O   0  0  0  0  0  0  0  0  0  0  0  0
    1.8340   -1.5960    0.0000 N   0  0  0  0  0  4  0  0  0  0  0  0
    1.0710   -0.3050    0.0000 C   0  0  0  0  0  0  0  0  0  0  0  0
    1.8070    1.0020    0.0000 N   0  0  0  0  0  0  0  0  0  0  0  0
    3.3070    1.0170    0.0000 C   0  0  0  0  0  0  0  0  0  0  0  0
    4.8070    1.0330    0.0000 C   0  0  0  0  0  0  0  0  0  0  0  0
    5.5710   -0.2580    0.0000 C   0  0  0  0  0  0  0  0  0  0  0  0
    7.0700   -0.2430    0.0000 C   0  0  0  0  0  0  0  0  0  0  0  0
    7.8070    1.0640    0.0000 C   0  0  0  0  0  0  0  0  0  0  0  0
    9.3070    1.0800    0.0000 Cl  0  0  0  0  0  0  0  0  0  0  0  0
    7.0430    2.3550    0.0000 C   0  0  0  0  0  0  0  0  0  0  0  0
    7.7800    3.6620    0.0000 Cl  0  0  0  0  0  0  0  0  0  0  0  0
    5.5440    2.3400    0.0000 C   0  0  0  0  0  0  0  0  0  0  0  0
   -0.4290   -0.3210    0.0000 N   0  0  0  0  0  0  0  0  0  0  0  0
   -1.1660   -1.6270    0.0000 C   0  0  0  0  0  0  0  0  0  0  0  0
   -7.9580    4.4760    0.0000 H   0  0  0  0  0  0  0  0  0  0  0  0
   -8.1220    0.8890    0.0000 H   0  0  0  0  0  0  0  0  0  0  0  0
   -6.1380    3.1390    0.0000 H   0  0  0  0  0  0  0  0  0  0  0  0
   -6.9970   -0.1030    0.0000 H   0  0  0  0  0  0  0  0  0  0  0  0
   -5.0130    2.1470    0.0000 H   0  0  0  0  0  0  0  0  0  0  0  0
   -3.8880    1.1550    0.0000 H   0  0  0  0  0  0  0  0  0  0  0  0
   -5.8720   -1.0950    0.0000 H   0  0  0  0  0  0  0  0  0  0  0  0
   -4.7470   -2.0870    0.0000 H   0  0  0  0  0  0  0  0  0  0  0  0
   -2.7630    0.1630    0.0000 H   0  0  0  0  0  0  0  0  0  0  0  0
   -4.0620   -4.2110    0.0000 H   0  0  0  0  0  0  0  0  0  0  0  0
    3.3610   -4.1790    0.0000 H   0  0  0  0  0  0  0  0  0  0  0  0
    1.0440    2.2930    0.0000 H   0  0  0  0  0  0  0  0  0  0  0  0
    3.3230   -0.4830    0.0000 H   0  0  0  0  0  0  0  0  0  0  0  0
    3.2920    2.5170    0.0000 H   0  0  0  0  0  0  0  0  0  0  0  0
    4.8340   -1.5650    0.0000 H   0  0  0  0  0  0  0  0  0  0  0  0
    7.8340   -1.5340    0.0000 H   0  0  0  0  0  0  0  0  0  0  0  0
    4.7800    3.6310    0.0000 H   0  0  0  0  0  0  0  0  0  0  0  0
  1  2  1  0  0  0  0
  1 26  1  0  0  0  0
  2  3  1  0  0  0  0
  2 27  1  0  0  0  0
  2 28  1  0  0  0  0
  3  4  1  0  0  0  0
  3 29  1  0  0  0  0
  3 30  1  0  0  0  0
  4  5  1  0  0  0  0
  4 31  1  0  0  0  0
  4 32  1  0  0  0  0
  5  6  1  0  0  0  0
  5 33  1  0  0  0  0
  5 34  1  0  0  0  0
  6  7  1  0  0  0  0
  6 25  1  0  0  0  0
  7  8  2  0  0  0  0
  7 35  1  0  0  0  0
  8  9  1  0  0  0  0
  9 10  2  0  0  0  0
  9 25  1  0  0  0  0
 10 11  1  0  0  0  0
 10 12  2  0  0  0  0
 11 36  1  0  0  0  0
 12 13  2  0  0  0  0
 13 14  1  0  0  0  0
 13 24  1  0  0  0  0
 14 15  1  0  0  0  0
 14 37  1  0  0  0  0
 15 16  1  0  0  0  0
 15 38  1  0  0  0  0
 15 39  1  0  0  0  0
 16 17  2  0  0  0  0
 16 23  1  0  0  0  0
 17 18  1  0  0  0  0
 17 40  1  0  0  0  0
 18 19  2  0  0  0  0
 18 41  1  0  0  0  0
 19 20  1  0  0  0  0
 19 21  1  0  0  0  0
 21 22  1  0  0  0  0
 21 23  2  0  0  0  0
 23 42  1  0  0  0  0
 24 25  2  0  0  0  0
M  END
$$$$
