2D_structures\o38_MMV1593538_2D.pdb
 OpenBabel02272408253D

 24 24  0  0  1  0  0  0  0  0999 V2000
    2.0380   -1.1220    0.0000 N   0  0  0  0  0  0  0  0  0  0  0  0
    0.9350   -0.1060    0.0000 C   0  0  1  0  0  0  0  0  0  0  0  0
    0.1260   -1.3690    0.0000 C   0  0  0  0  0  0  0  0  0  0  0  0
   -1.3730   -1.3000    0.0000 C   0  0  0  0  0  0  0  0  0  0  0  0
   -2.0620    0.0320    0.0000 P   0  0  1  0  0  0  0  0  0  0  0  0
   -3.2540   -0.8790    0.0000 O   0  0  0  0  0  0  0  0  0  0  0  0
   -3.1660    1.0480    0.0000 O   0  0  0  0  0  0  0  0  0  0  0  0
   -1.2530    1.2950    0.0000 C   0  0  0  0  0  0  0  0  0  0  0  0
    0.2450    1.2260    0.0000 C   0  0  0  0  0  0  0  0  0  0  0  0
    2.1270    0.8040    0.0000 C   0  0  0  0  0  0  0  0  0  0  0  0
    2.1200    1.7890    0.0000 O   0  0  0  0  0  0  0  0  0  0  0  0
    3.5110    0.2270    0.0000 O   0  0  0  0  0  0  0  0  0  0  0  0
    1.9420   -2.1010    0.0000 H   0  0  0  0  0  0  0  0  0  0  0  0
    3.5360   -1.0340    0.0000 H   0  0  0  0  0  0  0  0  0  0  0  0
    0.9810   -1.8560    0.0000 H   0  0  0  0  0  0  0  0  0  0  0  0
   -0.2020   -2.8330    0.0000 H   0  0  0  0  0  0  0  0  0  0  0  0
   -1.1800   -2.7880    0.0000 H   0  0  0  0  0  0  0  0  0  0  0  0
   -2.8040   -1.7480    0.0000 H   0  0  0  0  0  0  0  0  0  0  0  0
   -4.5980    0.6000    0.0000 H   0  0  0  0  0  0  0  0  0  0  0  0
   -2.6380    1.8720    0.0000 H   0  0  0  0  0  0  0  0  0  0  0  0
   -0.9250    2.7590    0.0000 H   0  0  0  0  0  0  0  0  0  0  0  0
    0.0530    2.7140    0.0000 H   0  0  0  0  0  0  0  0  0  0  0  0
    1.1410    1.6320    0.0000 H   0  0  0  0  0  0  0  0  0  0  0  0
    4.7030    1.1380    0.0000 H   0  0  0  0  0  0  0  0  0  0  0  0
  1  2  1  0  0  0  0
  1 13  1  0  0  0  0
  1 14  1  0  0  0  0
  2  3  1  0  0  0  0
  2  9  1  0  0  0  0
  2 10  1  6  0  0  0
  3  4  1  0  0  0  0
  3 15  1  0  0  0  0
  3 16  1  0  0  0  0
  4  5  1  0  0  0  0
  4 17  1  0  0  0  0
  4 18  1  0  0  0  0
  5  6  2  6  0  0  0
  5  7  1  0  0  0  0
  5  8  1  0  0  0  0
  7 19  1  0  0  0  0
  8  9  1  0  0  0  0
  8 20  1  0  0  0  0
  8 21  1  0  0  0  0
  9 22  1  0  0  0  0
  9 23  1  0  0  0  0
 10 11  2  0  0  0  0
 10 12  1  0  0  0  0
 12 24  1  0  0  0  0
M  END
$$$$
