2D_structures\o40_MMV002459_2D.pdb
 OpenBabel02272408253D

 69 71  0  0  1  0  0  0  0  0999 V2000
    8.9970    0.0440    0.0000 N   0  0  0  0  0  0  0  0  0  0  0  0
    7.4970    0.0050    0.0000 C   0  0  0  0  0  0  0  0  0  0  0  0
    5.9980   -0.0340    0.0000 C   0  0  1  0  0  0  0  0  0  0  0  0
    4.6020   -0.5840    0.0000 O   0  0  0  0  0  0  0  0  0  0  0  0
    3.4280    0.3500    0.0000 C   0  0  1  0  0  0  0  0  0  0  0  0
    2.7130   -0.9680    0.0000 O   0  0  0  0  0  0  0  0  0  0  0  0
    1.2130   -1.0070    0.0000 C   0  0  1  0  0  0  0  0  0  0  0  0
    1.5120   -2.4770    0.0000 C   0  0  1  0  0  0  0  0  0  0  0  0
    2.2960   -3.7560    0.0000 N   0  0  0  0  0  0  0  0  0  0  0  0
    0.3880   -3.4710    0.0000 C   0  0  0  0  0  0  0  0  0  0  0  0
   -1.0340   -2.9950    0.0000 C   0  0  1  0  0  0  0  0  0  0  0  0
   -2.5340   -3.0340    0.0000 N   0  0  0  0  0  0  0  0  0  0  0  0
   -1.3330   -1.5250    0.0000 C   0  0  1  0  0  0  0  0  0  0  0  0
   -2.1170   -0.2460    0.0000 O   0  0  0  0  0  0  0  0  0  0  0  0
   -3.6160   -0.2850    0.0000 C   0  0  1  0  0  0  0  0  0  0  0  0
   -3.3940    1.1980    0.0000 O   0  0  0  0  0  0  0  0  0  0  0  0
   -4.5680    2.1320    0.0000 C   0  0  1  0  0  0  0  0  0  0  0  0
   -5.3520    3.4110    0.0000 C   0  0  0  0  0  0  0  0  0  0  0  0
   -6.1350    4.6900    0.0000 O   0  0  0  0  0  0  0  0  0  0  0  0
   -5.9640    1.5830    0.0000 C   0  0  1  0  0  0  0  0  0  0  0  0
   -7.4630    1.5430    0.0000 O   0  0  0  0  0  0  0  0  0  0  0  0
   -6.1860    0.0990    0.0000 C   0  0  1  0  0  0  0  0  0  0  0  0
   -6.9010   -1.2190    0.0000 N   0  0  0  0  0  0  0  0  0  0  0  0
   -5.0120   -0.8350    0.0000 C   0  0  1  0  0  0  0  0  0  0  0  0
   -4.2280   -2.1140    0.0000 O   0  0  0  0  0  0  0  0  0  0  0  0
   -0.2090   -0.5310    0.0000 C   0  0  1  0  0  0  0  0  0  0  0  0
    0.5060    0.7870    0.0000 O   0  0  0  0  0  0  0  0  0  0  0  0
    3.6500    1.8330    0.0000 C   0  0  1  0  0  0  0  0  0  0  0  0
    2.1510    1.7940    0.0000 N   0  0  0  0  0  0  0  0  0  0  0  0
    5.0460    2.3830    0.0000 C   0  0  0  0  0  0  0  0  0  0  0  0
    6.2200    1.4490    0.0000 C   0  0  1  0  0  0  0  0  0  0  0  0
    6.9360    2.7670    0.0000 O   0  0  0  0  0  0  0  0  0  0  0  0
    9.7800   -1.2350    0.0000 H   0  0  0  0  0  0  0  0  0  0  0  0
    9.7130    1.3620    0.0000 H   0  0  0  0  0  0  0  0  0  0  0  0
    7.5370   -1.4950    0.0000 H   0  0  0  0  0  0  0  0  0  0  0  0
    7.6410    1.4980    0.0000 H   0  0  0  0  0  0  0  0  0  0  0  0
    6.2970   -1.5040    0.0000 H   0  0  0  0  0  0  0  0  0  0  0  0
    2.0060    0.8260    0.0000 H   0  0  0  0  0  0  0  0  0  0  0  0
    1.1080    0.0810    0.0000 H   0  0  0  0  0  0  0  0  0  0  0  0
    2.9080   -1.9280    0.0000 H   0  0  0  0  0  0  0  0  0  0  0  0
    1.9350   -4.6720    0.0000 H   0  0  0  0  0  0  0  0  0  0  0  0
    3.7950   -3.7170    0.0000 H   0  0  0  0  0  0  0  0  0  0  0  0
   -0.3270   -4.7890    0.0000 H   0  0  0  0  0  0  0  0  0  0  0  0
    1.0780   -4.1730    0.0000 H   0  0  0  0  0  0  0  0  0  0  0  0
   -1.2560   -4.4780    0.0000 H   0  0  0  0  0  0  0  0  0  0  0  0
   -3.1020   -2.4750    0.0000 H   0  0  0  0  0  0  0  0  0  0  0  0
   -3.2490   -4.3520    0.0000 H   0  0  0  0  0  0  0  0  0  0  0  0
   -2.4630   -1.9700    0.0000 H   0  0  0  0  0  0  0  0  0  0  0  0
   -3.6820   -1.7840    0.0000 H   0  0  0  0  0  0  0  0  0  0  0  0
   -3.4440    3.1260    0.0000 H   0  0  0  0  0  0  0  0  0  0  0  0
   -4.0730    4.1950    0.0000 H   0  0  0  0  0  0  0  0  0  0  0  0
   -6.7170    2.7890    0.0000 H   0  0  0  0  0  0  0  0  0  0  0  0
   -5.4190    6.0080    0.0000 H   0  0  0  0  0  0  0  0  0  0  0  0
   -6.4400    3.0050    0.0000 H   0  0  0  0  0  0  0  0  0  0  0  0
   -8.2470    2.8230    0.0000 H   0  0  0  0  0  0  0  0  0  0  0  0
   -7.6080    0.5750    0.0000 H   0  0  0  0  0  0  0  0  0  0  0  0
   -8.4010   -1.2580    0.0000 H   0  0  0  0  0  0  0  0  0  0  0  0
   -6.2800   -2.5840    0.0000 H   0  0  0  0  0  0  0  0  0  0  0  0
   -6.0060   -1.9580    0.0000 H   0  0  0  0  0  0  0  0  0  0  0  0
   -4.9440   -3.4320    0.0000 H   0  0  0  0  0  0  0  0  0  0  0  0
   -1.3830    0.4030    0.0000 H   0  0  0  0  0  0  0  0  0  0  0  0
   -0.2770    2.0660    0.0000 H   0  0  0  0  0  0  0  0  0  0  0  0
    3.3510    3.3030    0.0000 H   0  0  0  0  0  0  0  0  0  0  0  0
    1.3670    3.0730    0.0000 H   0  0  0  0  0  0  0  0  0  0  0  0
    1.1370    0.6890    0.0000 H   0  0  0  0  0  0  0  0  0  0  0  0
    4.2620    3.6620    0.0000 H   0  0  0  0  0  0  0  0  0  0  0  0
    6.1690    3.3770    0.0000 H   0  0  0  0  0  0  0  0  0  0  0  0
    7.6900    1.1500    0.0000 H   0  0  0  0  0  0  0  0  0  0  0  0
    8.4350    2.8060    0.0000 H   0  0  0  0  0  0  0  0  0  0  0  0
  1  2  1  0  0  0  0
  1 33  1  0  0  0  0
  1 34  1  0  0  0  0
  2  3  1  0  0  0  0
  2 35  1  0  0  0  0
  2 36  1  0  0  0  0
  3  4  1  0  0  0  0
  3 31  1  0  0  0  0
  3 37  1  6  0  0  0
  4  5  1  0  0  0  0
  5  6  1  0  0  0  0
  5 28  1  0  0  0  0
  5 38  1  6  0  0  0
  6  7  1  0  0  0  0
  7  8  1  0  0  0  0
  7 26  1  0  0  0  0
  7 39  1  6  0  0  0
  8  9  1  0  0  0  0
  8 10  1  0  0  0  0
  8 40  1  6  0  0  0
  9 41  1  0  0  0  0
  9 42  1  0  0  0  0
 10 11  1  0  0  0  0
 10 43  1  0  0  0  0
 10 44  1  0  0  0  0
 11 12  1  0  0  0  0
 11 13  1  0  0  0  0
 11 45  1  6  0  0  0
 12 46  1  0  0  0  0
 12 47  1  0  0  0  0
 13 14  1  0  0  0  0
 13 26  1  0  0  0  0
 13 48  1  6  0  0  0
 14 15  1  0  0  0  0
 15 16  1  0  0  0  0
 15 24  1  0  0  0  0
 15 49  1  1  0  0  0
 16 17  1  0  0  0  0
 17 18  1  0  0  0  0
 17 20  1  0  0  0  0
 17 50  1  1  0  0  0
 18 19  1  0  0  0  0
 18 51  1  0  0  0  0
 18 52  1  0  0  0  0
 19 53  1  0  0  0  0
 20 21  1  0  0  0  0
 20 22  1  0  0  0  0
 20 54  1  1  0  0  0
 21 55  1  0  0  0  0
 22 23  1  0  0  0  0
 22 24  1  0  0  0  0
 22 56  1  1  0  0  0
 23 57  1  0  0  0  0
 23 58  1  0  0  0  0
 24 25  1  0  0  0  0
 24 59  1  1  0  0  0
 25 60  1  0  0  0  0
 26 27  1  0  0  0  0
 26 61  1  6  0  0  0
 27 62  1  0  0  0  0
 28 29  1  0  0  0  0
 28 30  1  0  0  0  0
 28 63  1  6  0  0  0
 29 64  1  0  0  0  0
 29 65  1  0  0  0  0
 30 31  1  0  0  0  0
 30 66  1  0  0  0  0
 30 67  1  0  0  0  0
 31 32  1  0  0  0  0
 31 68  1  6  0  0  0
 32 69  1  0  0  0  0
M  END
$$$$
