2D_structures\o42_MMV1580854_2D.pdb
 OpenBabel02272408253D

 31 32  0  0  0  0  0  0  0  0999 V2000
   -5.6080   -0.6790    0.0000 C   0  0  0  0  0  0  0  0  0  0  0  0
   -4.1590   -0.2930    0.0000 C   0  0  0  0  0  0  0  0  0  0  0  0
   -2.7090    0.0930    0.0000 C   0  0  0  0  0  0  0  0  0  0  0  0
   -2.3190    1.5410    0.0000 C   0  0  0  0  0  0  0  0  0  0  0  0
   -0.8690    1.9280    0.0000 C   0  0  0  0  0  0  0  0  0  0  0  0
   -0.4790    3.3760    0.0000 O   0  0  0  0  0  0  0  0  0  0  0  0
    0.1900    0.8650    0.0000 C   0  0  0  0  0  0  0  0  0  0  0  0
    1.6390    1.2520    0.0000 O   0  0  0  0  0  0  0  0  0  0  0  0
    2.6980    0.1890    0.0000 C   0  0  0  0  0  0  0  0  0  0  0  0
    2.3080   -1.2590    0.0000 C   0  0  0  0  0  0  0  0  0  0  0  0
    3.3670   -2.3210    0.0000 C   0  0  0  0  0  0  0  0  0  0  0  0
    4.8170   -1.9350    0.0000 C   0  0  0  0  0  0  0  0  0  0  0  0
    5.2070   -0.4860    0.0000 N   0  0  0  0  0  0  0  0  0  0  0  0
    4.1480    0.5760    0.0000 C   0  0  0  0  0  0  0  0  0  0  0  0
    4.5380    2.0240    0.0000 N   0  0  0  0  0  0  0  0  0  0  0  0
   -0.2000   -0.5830    0.0000 C   0  0  0  0  0  0  0  0  0  0  0  0
   -1.6500   -0.9690    0.0000 C   0  0  0  0  0  0  0  0  0  0  0  0
   -2.0400   -2.4170    0.0000 F   0  0  0  0  0  0  0  0  0  0  0  0
   -7.0570   -1.0660    0.0000 H   0  0  0  0  0  0  0  0  0  0  0  0
   -5.2220   -2.1290    0.0000 H   0  0  0  0  0  0  0  0  0  0  0  0
   -5.9940    0.7700    0.0000 H   0  0  0  0  0  0  0  0  0  0  0  0
   -4.5450    1.1560    0.0000 H   0  0  0  0  0  0  0  0  0  0  0  0
   -3.7720   -1.7430    0.0000 H   0  0  0  0  0  0  0  0  0  0  0  0
   -3.3780    2.6030    0.0000 H   0  0  0  0  0  0  0  0  0  0  0  0
    0.9700    3.7620    0.0000 H   0  0  0  0  0  0  0  0  0  0  0  0
    1.3950   -1.6260    0.0000 H   0  0  0  0  0  0  0  0  0  0  0  0
    2.9770   -3.7690    0.0000 H   0  0  0  0  0  0  0  0  0  0  0  0
    5.8760   -2.9970    0.0000 H   0  0  0  0  0  0  0  0  0  0  0  0
    5.9870    2.4100    0.0000 H   0  0  0  0  0  0  0  0  0  0  0  0
    3.4790    3.0860    0.0000 H   0  0  0  0  0  0  0  0  0  0  0  0
    0.4040   -1.3590    0.0000 H   0  0  0  0  0  0  0  0  0  0  0  0
  1  2  1  0  0  0  0
  1 19  1  0  0  0  0
  1 20  1  0  0  0  0
  1 21  1  0  0  0  0
  2  3  1  0  0  0  0
  2 22  1  0  0  0  0
  2 23  1  0  0  0  0
  3  4  2  0  0  0  0
  3 17  1  0  0  0  0
  4  5  1  0  0  0  0
  4 24  1  0  0  0  0
  5  6  1  0  0  0  0
  5  7  2  0  0  0  0
  6 25  1  0  0  0  0
  7  8  1  0  0  0  0
  7 16  1  0  0  0  0
  8  9  1  0  0  0  0
  9 10  2  0  0  0  0
  9 14  1  0  0  0  0
 10 11  1  0  0  0  0
 10 26  1  0  0  0  0
 11 12  2  0  0  0  0
 11 27  1  0  0  0  0
 12 13  1  0  0  0  0
 12 28  1  0  0  0  0
 13 14  2  0  0  0  0
 14 15  1  0  0  0  0
 15 29  1  0  0  0  0
 15 30  1  0  0  0  0
 16 17  2  0  0  0  0
 16 31  1  0  0  0  0
 17 18  1  0  0  0  0
M  END
$$$$
