2D_structures\o44_MMV1579849_2D.pdb
 OpenBabel02272408253D

222226  0  0  1  0  0  0  0  0999 V2000
   16.3270    0.7850    0.0000 C   0  0  0  0  0  0  0  0  0  0  0  0
   15.0990   -0.0760    0.0000 C   0  0  1  0  0  0  0  0  0  0  0  0
   15.9610   -1.3040    0.0000 N   0  0  0  0  0  0  0  0  0  0  0  0
   13.8710   -0.9380    0.0000 C   0  0  0  0  0  0  0  0  0  0  0  0
   14.1850   -2.4050    0.0000 O   0  0  0  0  0  0  0  0  0  0  0  0
   12.5110   -0.3060    0.0000 N   0  0  0  0  0  0  0  0  0  0  0  0
   11.2830   -1.1680    0.0000 C   0  0  1  0  0  0  0  0  0  0  0  0
   12.1450   -2.3960    0.0000 C   0  0  0  0  0  0  0  0  0  0  0  0
   13.0070   -3.6230    0.0000 C   0  0  0  0  0  0  0  0  0  0  0  0
   13.8690   -4.8510    0.0000 C   0  0  0  0  0  0  0  0  0  0  0  0
   14.7310   -6.0790    0.0000 C   0  0  0  0  0  0  0  0  0  0  0  0
   15.5930   -7.3060    0.0000 N   0  0  0  0  0  0  0  0  0  0  0  0
   10.4220    0.0590    0.0000 C   0  0  0  0  0  0  0  0  0  0  0  0
   11.2150    1.3320    0.0000 O   0  0  0  0  0  0  0  0  0  0  0  0
    8.9270   -0.0730    0.0000 N   0  0  0  0  0  0  0  0  0  0  0  0
    8.0650    1.1540    0.0000 C   0  0  1  0  0  0  0  0  0  0  0  0
    9.2930    2.0160    0.0000 C   0  0  0  0  0  0  0  0  0  0  0  0
   10.5210    2.8780    0.0000 C   0  0  0  0  0  0  0  0  0  0  0  0
   11.7480    3.7400    0.0000 C   0  0  0  0  0  0  0  0  0  0  0  0
   12.9760    4.6020    0.0000 N   0  0  0  0  0  0  0  0  0  0  0  0
   12.8430    6.0960    0.0000 C   0  0  0  0  0  0  0  0  0  0  0  0
   14.0710    6.9580    0.0000 N   0  0  0  0  0  0  0  0  0  0  0  0
   11.4830    6.7280    0.0000 N   0  0  0  0  0  0  0  0  0  0  0  0
    6.8380    0.2920    0.0000 C   0  0  0  0  0  0  0  0  0  0  0  0
    6.9710   -1.2020    0.0000 O   0  0  0  0  0  0  0  0  0  0  0  0
    5.4780    0.9240    0.0000 N   0  0  0  0  0  0  0  0  0  0  0  0
    4.2500    0.0620    0.0000 C   0  0  1  0  0  0  0  0  0  0  0  0
    5.1120   -1.1650    0.0000 C   0  0  0  0  0  0  0  0  0  0  0  0
    5.9740   -2.3930    0.0000 C   0  0  0  0  0  0  0  0  0  0  0  0
    7.4740   -2.4170    0.0000 C   0  0  0  0  0  0  0  0  0  0  0  0
    7.9140   -3.8510    0.0000 N   0  0  0  0  0  0  0  0  0  0  0  0
    6.6870   -4.7130    0.0000 C   0  0  0  0  0  0  0  0  0  0  0  0
    5.4870   -3.8120    0.0000 N   0  0  0  0  0  0  0  0  0  0  0  0
    3.3880    1.2900    0.0000 C   0  0  0  0  0  0  0  0  0  0  0  0
    4.0200    2.6500    0.0000 O   0  0  0  0  0  0  0  0  0  0  0  0
    1.8940    1.1570    0.0000 N   0  0  0  0  0  0  0  0  0  0  0  0
    1.0320    2.3850    0.0000 C   0  0  1  0  0  0  0  0  0  0  0  0
    2.2590    3.2470    0.0000 C   0  0  0  0  0  0  0  0  0  0  0  0
    3.4870    4.1090    0.0000 C   0  0  0  0  0  0  0  0  0  0  0  0
    3.5110    5.6090    0.0000 C   0  0  0  0  0  0  0  0  0  0  0  0
    4.9450    6.0490    0.0000 N   0  0  0  0  0  0  0  0  0  0  0  0
    5.8070    4.8220    0.0000 C   0  0  0  0  0  0  0  0  0  0  0  0
    4.9060    3.6220    0.0000 N   0  0  0  0  0  0  0  0  0  0  0  0
   -0.1960    1.5230    0.0000 C   0  0  0  0  0  0  0  0  0  0  0  0
   -0.0630    0.0290    0.0000 O   0  0  0  0  0  0  0  0  0  0  0  0
   -1.5560    2.1550    0.0000 N   0  0  0  0  0  0  0  0  0  0  0  0
   -2.7840    1.2930    0.0000 C   0  0  0  0  0  0  0  0  0  0  0  0
   -4.0110    0.4310    0.0000 C   0  0  0  0  0  0  0  0  0  0  0  0
   -4.9150    1.6280    0.0000 O   0  0  0  0  0  0  0  0  0  0  0  0
   -3.8790   -1.0630    0.0000 N   0  0  0  0  0  0  0  0  0  0  0  0
   -5.1060   -1.9250    0.0000 C   0  0  1  0  0  0  0  0  0  0  0  0
   -4.2440   -3.1520    0.0000 C   0  0  0  0  0  0  0  0  0  0  0  0
   -3.3820   -4.3800    0.0000 C   0  0  0  0  0  0  0  0  0  0  0  0
   -4.0140   -5.7400    0.0000 C   0  0  0  0  0  0  0  0  0  0  0  0
   -3.1520   -6.9680    0.0000 C   0  0  0  0  0  0  0  0  0  0  0  0
   -1.6580   -6.8350    0.0000 C   0  0  0  0  0  0  0  0  0  0  0  0
   -0.7960   -8.0630    0.0000 O   0  0  0  0  0  0  0  0  0  0  0  0
   -1.0260   -5.4750    0.0000 C   0  0  0  0  0  0  0  0  0  0  0  0
   -1.8880   -4.2470    0.0000 C   0  0  0  0  0  0  0  0  0  0  0  0
   -5.9680   -0.6970    0.0000 C   0  0  0  0  0  0  0  0  0  0  0  0
   -6.8530   -0.6680    0.0000 O   0  0  0  0  0  0  0  0  0  0  0  0
   -5.3360    0.6630    0.0000 N   0  0  0  0  0  0  0  0  0  0  0  0
   -6.1980    1.8910    0.0000 C   0  0  1  0  0  0  0  0  0  0  0  0
   -4.9700    2.7530    0.0000 C   0  0  0  0  0  0  0  0  0  0  0  0
   -3.7430    3.6150    0.0000 C   0  0  0  0  0  0  0  0  0  0  0  0
   -2.5150    4.4770    0.0000 C   0  0  0  0  0  0  0  0  0  0  0  0
   -1.2880    5.3380    0.0000 C   0  0  0  0  0  0  0  0  0  0  0  0
   -0.0600    6.2000    0.0000 N   0  0  0  0  0  0  0  0  0  0  0  0
   -7.4260    1.0290    0.0000 C   0  0  0  0  0  0  0  0  0  0  0  0
   -7.6440    0.2620    0.0000 O   0  0  0  0  0  0  0  0  0  0  0  0
   -8.7860    1.6610    0.0000 N   0  0  0  0  0  0  0  0  0  0  0  0
  -10.0130    0.7990    0.0000 C   0  0  1  0  0  0  0  0  0  0  0  0
  -10.8750    2.0260    0.0000 C   0  0  0  0  0  0  0  0  0  0  0  0
  -11.7370    3.2540    0.0000 C   0  0  0  0  0  0  0  0  0  0  0  0
  -12.5990    4.4820    0.0000 C   0  0  0  0  0  0  0  0  0  0  0  0
  -13.4610    5.7090    0.0000 N   0  0  0  0  0  0  0  0  0  0  0  0
  -12.8290    7.0700    0.0000 C   0  0  0  0  0  0  0  0  0  0  0  0
  -13.6910    8.2970    0.0000 N   0  0  0  0  0  0  0  0  0  0  0  0
  -11.3350    7.2020    0.0000 N   0  0  0  0  0  0  0  0  0  0  0  0
   -9.1510   -0.4290    0.0000 C   0  0  0  0  0  0  0  0  0  0  0  0
   -8.2660   -0.4590    0.0000 O   0  0  0  0  0  0  0  0  0  0  0  0
   -9.7840   -1.7890    0.0000 N   0  0  0  0  0  0  0  0  0  0  0  0
   -8.9220   -3.0170    0.0000 C   0  0  1  0  0  0  0  0  0  0  0  0
  -10.1490   -3.8790    0.0000 C   0  0  0  0  0  0  0  0  0  0  0  0
  -11.3770   -4.7410    0.0000 C   0  0  0  0  0  0  0  0  0  0  0  0
  -12.6040   -5.6030    0.0000 C   0  0  0  0  0  0  0  0  0  0  0  0
  -13.8320   -6.4650    0.0000 C   0  0  0  0  0  0  0  0  0  0  0  0
  -15.0600   -7.3270    0.0000 N   0  0  0  0  0  0  0  0  0  0  0  0
   -7.6940   -2.1550    0.0000 C   0  0  0  0  0  0  0  0  0  0  0  0
   -8.0080   -0.6880    0.0000 O   0  0  0  0  0  0  0  0  0  0  0  0
   -6.3340   -2.7870    0.0000 N   0  0  0  0  0  0  0  0  0  0  0  0
   -5.1060   -1.9250    0.0000 C   0  0  1  0  0  0  0  0  0  0  0  0
   -4.2440   -3.1520    0.0000 C   0  0  0  0  0  0  0  0  0  0  0  0
   -3.3820   -4.3800    0.0000 C   0  0  0  0  0  0  0  0  0  0  0  0
   -4.0140   -5.7400    0.0000 C   0  0  0  0  0  0  0  0  0  0  0  0
   -3.1520   -6.9680    0.0000 C   0  0  0  0  0  0  0  0  0  0  0  0
   -1.6580   -6.8350    0.0000 C   0  0  0  0  0  0  0  0  0  0  0  0
   -1.0260   -5.4750    0.0000 C   0  0  0  0  0  0  0  0  0  0  0  0
   -1.8880   -4.2470    0.0000 C   0  0  0  0  0  0  0  0  0  0  0  0
   -5.9680   -0.6970    0.0000 C   0  0  0  0  0  0  0  0  0  0  0  0
   -7.3150   -1.3570    0.0000 O   0  0  0  0  0  0  0  0  0  0  0  0
   -5.3360    0.6630    0.0000 N   0  0  0  0  0  0  0  0  0  0  0  0
   -6.1980    1.8910    0.0000 C   0  0  1  0  0  0  0  0  0  0  0  0
   -4.9700    2.7530    0.0000 C   0  0  0  0  0  0  0  0  0  0  0  0
   -3.7430    3.6150    0.0000 C   0  0  0  0  0  0  0  0  0  0  0  0
   -3.7190    5.1140    0.0000 C   0  0  0  0  0  0  0  0  0  0  0  0
   -2.2850    5.5550    0.0000 N   0  0  0  0  0  0  0  0  0  0  0  0
   -1.4230    4.3270    0.0000 C   0  0  0  0  0  0  0  0  0  0  0  0
   -2.3240    3.1280    0.0000 N   0  0  0  0  0  0  0  0  0  0  0  0
   -7.4260    1.0290    0.0000 C   0  0  0  0  0  0  0  0  0  0  0  0
   -7.1120   -0.4380    0.0000 O   0  0  0  0  0  0  0  0  0  0  0  0
   -8.7860    1.6610    0.0000 N   0  0  0  0  0  0  0  0  0  0  0  0
   17.5540    1.6470    0.0000 H   0  0  0  0  0  0  0  0  0  0  0  0
   17.3320   -0.3280    0.0000 H   0  0  0  0  0  0  0  0  0  0  0  0
   15.4650    2.0130    0.0000 H   0  0  0  0  0  0  0  0  0  0  0  0
   14.2370    1.1510    0.0000 H   0  0  0  0  0  0  0  0  0  0  0  0
   17.4600   -1.3550    0.0000 H   0  0  0  0  0  0  0  0  0  0  0  0
   15.3290   -2.6640    0.0000 H   0  0  0  0  0  0  0  0  0  0  0  0
   12.3780    1.1880    0.0000 H   0  0  0  0  0  0  0  0  0  0  0  0
   10.0560   -2.0300    0.0000 H   0  0  0  0  0  0  0  0  0  0  0  0
   10.9180   -3.2580    0.0000 H   0  0  0  0  0  0  0  0  0  0  0  0
   13.5450   -1.8570    0.0000 H   0  0  0  0  0  0  0  0  0  0  0  0
   14.3310   -2.9180    0.0000 H   0  0  0  0  0  0  0  0  0  0  0  0
   11.7800   -4.4850    0.0000 H   0  0  0  0  0  0  0  0  0  0  0  0
   12.6420   -5.7130    0.0000 H   0  0  0  0  0  0  0  0  0  0  0  0
   15.0970   -3.9890    0.0000 H   0  0  0  0  0  0  0  0  0  0  0  0
   15.9590   -5.2170    0.0000 H   0  0  0  0  0  0  0  0  0  0  0  0
   13.5040   -6.9410    0.0000 H   0  0  0  0  0  0  0  0  0  0  0  0
   14.9610   -8.6670    0.0000 H   0  0  0  0  0  0  0  0  0  0  0  0
   17.0870   -7.1740    0.0000 H   0  0  0  0  0  0  0  0  0  0  0  0
    8.4660   -1.5010    0.0000 H   0  0  0  0  0  0  0  0  0  0  0  0
    7.2030    2.3820    0.0000 H   0  0  0  0  0  0  0  0  0  0  0  0
   10.4260    1.0340    0.0000 H   0  0  0  0  0  0  0  0  0  0  0  0
    8.4310    3.2440    0.0000 H   0  0  0  0  0  0  0  0  0  0  0  0
    9.6590    4.1060    0.0000 H   0  0  0  0  0  0  0  0  0  0  0  0
   11.5260    1.7650    0.0000 H   0  0  0  0  0  0  0  0  0  0  0  0
   12.6100    2.5130    0.0000 H   0  0  0  0  0  0  0  0  0  0  0  0
   10.8860    4.9680    0.0000 H   0  0  0  0  0  0  0  0  0  0  0  0
   14.3360    3.9700    0.0000 H   0  0  0  0  0  0  0  0  0  0  0  0
   13.9380    8.4520    0.0000 H   0  0  0  0  0  0  0  0  0  0  0  0
   11.3500    8.2230    0.0000 H   0  0  0  0  0  0  0  0  0  0  0  0
   10.2550    5.8660    0.0000 H   0  0  0  0  0  0  0  0  0  0  0  0
    5.3450    2.4190    0.0000 H   0  0  0  0  0  0  0  0  0  0  0  0
    3.0220   -0.8000    0.0000 H   0  0  0  0  0  0  0  0  0  0  0  0
    6.5120   -0.6260    0.0000 H   0  0  0  0  0  0  0  0  0  0  0  0
    3.8840   -2.0270    0.0000 H   0  0  0  0  0  0  0  0  0  0  0  0
    8.5140   -1.3370    0.0000 H   0  0  0  0  0  0  0  0  0  0  0  0
    9.3330   -4.3370    0.0000 H   0  0  0  0  0  0  0  0  0  0  0  0
    6.6620   -6.2130    0.0000 H   0  0  0  0  0  0  0  0  0  0  0  0
    1.2620   -0.2030    0.0000 H   0  0  0  0  0  0  0  0  0  0  0  0
    0.1700    3.6130    0.0000 H   0  0  0  0  0  0  0  0  0  0  0  0
    3.3930    2.2640    0.0000 H   0  0  0  0  0  0  0  0  0  0  0  0
    1.3980    4.4750    0.0000 H   0  0  0  0  0  0  0  0  0  0  0  0
    2.3120    6.5100    0.0000 H   0  0  0  0  0  0  0  0  0  0  0  0
    5.4320    7.4680    0.0000 H   0  0  0  0  0  0  0  0  0  0  0  0
    7.3070    4.7970    0.0000 H   0  0  0  0  0  0  0  0  0  0  0  0
   -0.8080    3.4550    0.0000 H   0  0  0  0  0  0  0  0  0  0  0  0
   -3.4900    2.6170    0.0000 H   0  0  0  0  0  0  0  0  0  0  0  0
   -1.9220    0.0660    0.0000 H   0  0  0  0  0  0  0  0  0  0  0  0
   -2.4060   -1.3470    0.0000 H   0  0  0  0  0  0  0  0  0  0  0  0
   -6.0890   -3.0580    0.0000 H   0  0  0  0  0  0  0  0  0  0  0  0
   -3.0170   -2.2910    0.0000 H   0  0  0  0  0  0  0  0  0  0  0  0
   -5.4720   -4.0140    0.0000 H   0  0  0  0  0  0  0  0  0  0  0  0
   -5.5140   -5.6900    0.0000 H   0  0  0  0  0  0  0  0  0  0  0  0
   -3.9460   -8.2410    0.0000 H   0  0  0  0  0  0  0  0  0  0  0  0
    0.6980   -7.9300    0.0000 H   0  0  0  0  0  0  0  0  0  0  0  0
    0.4410   -5.1610    0.0000 H   0  0  0  0  0  0  0  0  0  0  0  0
   -1.4260   -2.8200    0.0000 H   0  0  0  0  0  0  0  0  0  0  0  0
   -3.8690    0.9770    0.0000 H   0  0  0  0  0  0  0  0  0  0  0  0
   -7.2030    3.0040    0.0000 H   0  0  0  0  0  0  0  0  0  0  0  0
   -5.9760    3.8660    0.0000 H   0  0  0  0  0  0  0  0  0  0  0  0
   -3.7260    1.9160    0.0000 H   0  0  0  0  0  0  0  0  0  0  0  0
   -4.6050    4.8420    0.0000 H   0  0  0  0  0  0  0  0  0  0  0  0
   -2.7380    2.5010    0.0000 H   0  0  0  0  0  0  0  0  0  0  0  0
   -3.0540    5.8760    0.0000 H   0  0  0  0  0  0  0  0  0  0  0  0
   -1.2700    3.6390    0.0000 H   0  0  0  0  0  0  0  0  0  0  0  0
   -1.9930    6.6620    0.0000 H   0  0  0  0  0  0  0  0  0  0  0  0
   -0.4260    4.1110    0.0000 H   0  0  0  0  0  0  0  0  0  0  0  0
   -0.1930    7.6950    0.0000 H   0  0  0  0  0  0  0  0  0  0  0  0
    1.3000    5.5680    0.0000 H   0  0  0  0  0  0  0  0  0  0  0  0
   -8.9190    3.1550    0.0000 H   0  0  0  0  0  0  0  0  0  0  0  0
  -11.2410   -0.0630    0.0000 H   0  0  0  0  0  0  0  0  0  0  0  0
  -12.1030    1.1640    0.0000 H   0  0  0  0  0  0  0  0  0  0  0  0
   -9.8930    3.1600    0.0000 H   0  0  0  0  0  0  0  0  0  0  0  0
  -10.5100    4.1160    0.0000 H   0  0  0  0  0  0  0  0  0  0  0  0
  -12.9650    2.3920    0.0000 H   0  0  0  0  0  0  0  0  0  0  0  0
  -13.8270    3.6200    0.0000 H   0  0  0  0  0  0  0  0  0  0  0  0
  -11.3720    5.3440    0.0000 H   0  0  0  0  0  0  0  0  0  0  0  0
  -14.9550    5.5770    0.0000 H   0  0  0  0  0  0  0  0  0  0  0  0
  -13.0590    9.6570    0.0000 H   0  0  0  0  0  0  0  0  0  0  0  0
  -10.7030    8.5620    0.0000 H   0  0  0  0  0  0  0  0  0  0  0  0
  -10.4730    5.9750    0.0000 H   0  0  0  0  0  0  0  0  0  0  0  0
  -11.2830   -1.7390    0.0000 H   0  0  0  0  0  0  0  0  0  0  0  0
   -8.0600   -4.2440    0.0000 H   0  0  0  0  0  0  0  0  0  0  0  0
   -9.2870   -5.1060    0.0000 H   0  0  0  0  0  0  0  0  0  0  0  0
  -11.1540   -2.7650    0.0000 H   0  0  0  0  0  0  0  0  0  0  0  0
  -12.2390   -3.5130    0.0000 H   0  0  0  0  0  0  0  0  0  0  0  0
  -10.5150   -5.9680    0.0000 H   0  0  0  0  0  0  0  0  0  0  0  0
  -11.7420   -6.8300    0.0000 H   0  0  0  0  0  0  0  0  0  0  0  0
  -13.4660   -4.3750    0.0000 H   0  0  0  0  0  0  0  0  0  0  0  0
  -14.6940   -5.2370    0.0000 H   0  0  0  0  0  0  0  0  0  0  0  0
  -12.9700   -7.6920    0.0000 H   0  0  0  0  0  0  0  0  0  0  0  0
  -14.9270   -8.8210    0.0000 H   0  0  0  0  0  0  0  0  0  0  0  0
  -16.4200   -6.6940    0.0000 H   0  0  0  0  0  0  0  0  0  0  0  0
   -6.5670   -4.2690    0.0000 H   0  0  0  0  0  0  0  0  0  0  0  0
   -3.7060   -1.3860    0.0000 H   0  0  0  0  0  0  0  0  0  0  0  0
   -5.2270   -4.2860    0.0000 H   0  0  0  0  0  0  0  0  0  0  0  0
   -2.8440   -2.6130    0.0000 H   0  0  0  0  0  0  0  0  0  0  0  0
   -5.4810   -6.0540    0.0000 H   0  0  0  0  0  0  0  0  0  0  0  0
   -3.6140   -8.3950    0.0000 H   0  0  0  0  0  0  0  0  0  0  0  0
   -1.1190   -8.2350    0.0000 H   0  0  0  0  0  0  0  0  0  0  0  0
    0.4730   -5.5250    0.0000 H   0  0  0  0  0  0  0  0  0  0  0  0
   -1.0950   -2.9740    0.0000 H   0  0  0  0  0  0  0  0  0  0  0  0
   -3.8370    0.6130    0.0000 H   0  0  0  0  0  0  0  0  0  0  0  0
   -6.9040    3.2140    0.0000 H   0  0  0  0  0  0  0  0  0  0  0  0
   -3.9650    1.6390    0.0000 H   0  0  0  0  0  0  0  0  0  0  0  0
   -5.6760    4.0760    0.0000 H   0  0  0  0  0  0  0  0  0  0  0  0
   -4.9180    6.0160    0.0000 H   0  0  0  0  0  0  0  0  0  0  0  0
   -1.9750    7.0220    0.0000 H   0  0  0  0  0  0  0  0  0  0  0  0
    0.0770    4.3030    0.0000 H   0  0  0  0  0  0  0  0  0  0  0  0
  -10.1860    1.1210    0.0000 H   0  0  0  0  0  0  0  0  0  0  0  0
   -8.5530    3.1430    0.0000 H   0  0  0  0  0  0  0  0  0  0  0  0
  1  2  1  0  0  0  0
  1113  1  0  0  0  0
  1114  1  0  0  0  0
  1115  1  0  0  0  0
  2  3  1  0  0  0  0
  2  4  1  0  0  0  0
  2116  1  6  0  0  0
  3117  1  0  0  0  0
  3118  1  0  0  0  0
  4  5  2  0  0  0  0
  4  6  1  0  0  0  0
  6  7  1  0  0  0  0
  6119  1  0  0  0  0
  7  8  1  0  0  0  0
  7 13  1  0  0  0  0
  7120  1  6  0  0  0
  8  9  1  0  0  0  0
  8121  1  0  0  0  0
  8122  1  0  0  0  0
  9 10  1  0  0  0  0
  9123  1  0  0  0  0
  9124  1  0  0  0  0
 10 11  1  0  0  0  0
 10125  1  0  0  0  0
 10126  1  0  0  0  0
 11 12  1  0  0  0  0
 11127  1  0  0  0  0
 11128  1  0  0  0  0
 12129  1  0  0  0  0
 12130  1  0  0  0  0
 13 14  2  0  0  0  0
 13 15  1  0  0  0  0
 15 16  1  0  0  0  0
 15131  1  0  0  0  0
 16 17  1  0  0  0  0
 16 24  1  0  0  0  0
 16132  1  1  0  0  0
 17 18  1  0  0  0  0
 17133  1  0  0  0  0
 17134  1  0  0  0  0
 18 19  1  0  0  0  0
 18135  1  0  0  0  0
 18136  1  0  0  0  0
 19 20  1  0  0  0  0
 19137  1  0  0  0  0
 19138  1  0  0  0  0
 20 21  1  0  0  0  0
 20139  1  0  0  0  0
 21 22  2  0  0  0  0
 21 23  1  0  0  0  0
 22140  1  0  0  0  0
 23141  1  0  0  0  0
 23142  1  0  0  0  0
 24 25  2  0  0  0  0
 24 26  1  0  0  0  0
 26 27  1  0  0  0  0
 26143  1  0  0  0  0
 27 28  1  0  0  0  0
 27 34  1  0  0  0  0
 27144  1  6  0  0  0
 28 29  1  0  0  0  0
 28145  1  0  0  0  0
 28146  1  0  0  0  0
 29 30  2  0  0  0  0
 29 33  1  0  0  0  0
 30 31  1  0  0  0  0
 30147  1  0  0  0  0
 31 32  1  0  0  0  0
 31148  1  0  0  0  0
 32 33  2  0  0  0  0
 32149  1  0  0  0  0
 34 35  2  0  0  0  0
 34 36  1  0  0  0  0
 36 37  1  0  0  0  0
 36150  1  0  0  0  0
 37 38  1  0  0  0  0
 37 44  1  0  0  0  0
 37151  1  1  0  0  0
 38 39  1  0  0  0  0
 38152  1  0  0  0  0
 38153  1  0  0  0  0
 39 40  2  0  0  0  0
 39 43  1  0  0  0  0
 40 41  1  0  0  0  0
 40154  1  0  0  0  0
 41 42  1  0  0  0  0
 41155  1  0  0  0  0
 42 43  2  0  0  0  0
 42156  1  0  0  0  0
 44 45  2  0  0  0  0
 44 46  1  0  0  0  0
 46 47  1  0  0  0  0
 46157  1  0  0  0  0
 47 48  1  0  0  0  0
 47158  1  0  0  0  0
 47159  1  0  0  0  0
 48 49  2  0  0  0  0
 48 50  1  0  0  0  0
 50 51  1  0  0  0  0
 50160  1  0  0  0  0
 51 52  1  0  0  0  0
 51 60  1  0  0  0  0
 51161  1  6  0  0  0
 52 53  1  0  0  0  0
 52162  1  0  0  0  0
 52163  1  0  0  0  0
 53 54  2  0  0  0  0
 53 59  1  0  0  0  0
 54 55  1  0  0  0  0
 54164  1  0  0  0  0
 55 56  2  0  0  0  0
 55165  1  0  0  0  0
 56 57  1  0  0  0  0
 56 58  1  0  0  0  0
 57166  1  0  0  0  0
 58 59  2  0  0  0  0
 58167  1  0  0  0  0
 59168  1  0  0  0  0
 60 61  2  0  0  0  0
 60 62  1  0  0  0  0
 62 63  1  0  0  0  0
 62169  1  0  0  0  0
 63 64  1  0  0  0  0
 63 69  1  0  0  0  0
 63170  1  1  0  0  0
 64 65  1  0  0  0  0
 64171  1  0  0  0  0
 64172  1  0  0  0  0
 65 66  1  0  0  0  0
 65173  1  0  0  0  0
 65174  1  0  0  0  0
 66 67  1  0  0  0  0
 66175  1  0  0  0  0
 66176  1  0  0  0  0
 67 68  1  0  0  0  0
 67177  1  0  0  0  0
 67178  1  0  0  0  0
 68179  1  0  0  0  0
 68180  1  0  0  0  0
 69 70  2  0  0  0  0
 69 71  1  0  0  0  0
 71 72  1  0  0  0  0
 71181  1  0  0  0  0
 72 73  1  0  0  0  0
 72 80  1  0  0  0  0
 72182  1  1  0  0  0
 73 74  1  0  0  0  0
 73183  1  0  0  0  0
 73184  1  0  0  0  0
 74 75  1  0  0  0  0
 74185  1  0  0  0  0
 74186  1  0  0  0  0
 75 76  1  0  0  0  0
 75187  1  0  0  0  0
 75188  1  0  0  0  0
 76 77  1  0  0  0  0
 76189  1  0  0  0  0
 77 78  2  0  0  0  0
 77 79  1  0  0  0  0
 78190  1  0  0  0  0
 79191  1  0  0  0  0
 79192  1  0  0  0  0
 80 81  2  0  0  0  0
 80 82  1  0  0  0  0
 82 83  1  0  0  0  0
 82193  1  0  0  0  0
 83 84  1  0  0  0  0
 83 89  1  0  0  0  0
 83194  1  1  0  0  0
 84 85  1  0  0  0  0
 84195  1  0  0  0  0
 84196  1  0  0  0  0
 85 86  1  0  0  0  0
 85197  1  0  0  0  0
 85198  1  0  0  0  0
 86 87  1  0  0  0  0
 86199  1  0  0  0  0
 86200  1  0  0  0  0
 87 88  1  0  0  0  0
 87201  1  0  0  0  0
 87202  1  0  0  0  0
 88203  1  0  0  0  0
 88204  1  0  0  0  0
 89 90  2  0  0  0  0
 89 91  1  0  0  0  0
 91 92  1  0  0  0  0
 91205  1  0  0  0  0
 92 93  1  0  0  0  0
 92100  1  0  0  0  0
 92206  1  1  0  0  0
 93 94  1  0  0  0  0
 93207  1  0  0  0  0
 93208  1  0  0  0  0
 94 95  2  0  0  0  0
 94 99  1  0  0  0  0
 95 96  1  0  0  0  0
 95209  1  0  0  0  0
 96 97  2  0  0  0  0
 96210  1  0  0  0  0
 97 98  1  0  0  0  0
 97211  1  0  0  0  0
 98 99  2  0  0  0  0
 98212  1  0  0  0  0
 99213  1  0  0  0  0
100101  2  0  0  0  0
100102  1  0  0  0  0
102103  1  0  0  0  0
102214  1  0  0  0  0
103104  1  0  0  0  0
103110  1  0  0  0  0
103215  1  1  0  0  0
104105  1  0  0  0  0
104216  1  0  0  0  0
104217  1  0  0  0  0
105106  2  0  0  0  0
105109  1  0  0  0  0
106107  1  0  0  0  0
106218  1  0  0  0  0
107108  1  0  0  0  0
107219  1  0  0  0  0
108109  2  0  0  0  0
108220  1  0  0  0  0
110111  2  0  0  0  0
110112  1  0  0  0  0
112221  1  0  0  0  0
112222  1  0  0  0  0
M  END
$$$$
