2D_structures\o46_MMV141011_2D.pdb
 OpenBabel02272408253D

 27 29  0  0  0  0  0  0  0  0999 V2000
   -6.2960   -1.8310    0.0000 Cl  0  0  0  0  0  0  0  0  0  0  0  0
   -5.1810   -0.8280    0.0000 C   0  0  0  0  0  0  0  0  0  0  0  0
   -5.4930    0.6400    0.0000 C   0  0  0  0  0  0  0  0  0  0  0  0
   -4.3790    1.6430    0.0000 C   0  0  0  0  0  0  0  0  0  0  0  0
   -2.9520    1.1800    0.0000 C   0  0  0  0  0  0  0  0  0  0  0  0
   -2.6400   -0.2880    0.0000 C   0  0  0  0  0  0  0  0  0  0  0  0
   -3.7550   -1.2910    0.0000 C   0  0  0  0  0  0  0  0  0  0  0  0
   -1.2140   -0.7510    0.0000 C   0  0  0  0  0  0  0  0  0  0  0  0
   -0.0000    0.1310    0.0000 O   0  0  0  0  0  0  0  0  0  0  0  0
    1.2140   -0.7510    0.0000 C   0  0  0  0  0  0  0  0  0  0  0  0
    0.7500   -2.1780    0.0000 N   0  0  0  0  0  0  0  0  0  0  0  0
   -0.7500   -2.1780    0.0000 N   0  0  0  0  0  0  0  0  0  0  0  0
    2.6400   -0.2880    0.0000 C   0  0  0  0  0  0  0  0  0  0  0  0
    3.7550   -1.2910    0.0000 C   0  0  0  0  0  0  0  0  0  0  0  0
    5.1810   -0.8280    0.0000 C   0  0  0  0  0  0  0  0  0  0  0  0
    5.4930    0.6400    0.0000 C   0  0  0  0  0  0  0  0  0  0  0  0
    4.3790    1.6430    0.0000 C   0  0  0  0  0  0  0  0  0  0  0  0
    2.9520    1.1800    0.0000 C   0  0  0  0  0  0  0  0  0  0  0  0
   -6.9200    1.1030    0.0000 H   0  0  0  0  0  0  0  0  0  0  0  0
   -4.6900    3.1100    0.0000 H   0  0  0  0  0  0  0  0  0  0  0  0
   -1.8370    2.1830    0.0000 H   0  0  0  0  0  0  0  0  0  0  0  0
   -3.4430   -2.7580    0.0000 H   0  0  0  0  0  0  0  0  0  0  0  0
    3.4430   -2.7580    0.0000 H   0  0  0  0  0  0  0  0  0  0  0  0
    6.2960   -1.8310    0.0000 H   0  0  0  0  0  0  0  0  0  0  0  0
    6.9200    1.1030    0.0000 H   0  0  0  0  0  0  0  0  0  0  0  0
    4.6900    3.1100    0.0000 H   0  0  0  0  0  0  0  0  0  0  0  0
    1.8370    2.1830    0.0000 H   0  0  0  0  0  0  0  0  0  0  0  0
  1  2  1  0  0  0  0
  2  3  2  0  0  0  0
  2  7  1  0  0  0  0
  3  4  1  0  0  0  0
  3 19  1  0  0  0  0
  4  5  2  0  0  0  0
  4 20  1  0  0  0  0
  5  6  1  0  0  0  0
  5 21  1  0  0  0  0
  6  7  2  0  0  0  0
  6  8  1  0  0  0  0
  7 22  1  0  0  0  0
  8  9  1  0  0  0  0
  8 12  2  0  0  0  0
  9 10  1  0  0  0  0
 10 11  2  0  0  0  0
 10 13  1  0  0  0  0
 11 12  1  0  0  0  0
 13 14  2  0  0  0  0
 13 18  1  0  0  0  0
 14 15  1  0  0  0  0
 14 23  1  0  0  0  0
 15 16  2  0  0  0  0
 15 24  1  0  0  0  0
 16 17  1  0  0  0  0
 16 25  1  0  0  0  0
 17 18  2  0  0  0  0
 17 26  1  0  0  0  0
 18 27  1  0  0  0  0
M  END
$$$$
