2D_structures\o47_MMV002516_2D.pdb
 OpenBabel02272408253D

 31 32  0  0  1  0  0  0  0  0999 V2000
   -1.5600   -2.4980    0.0000 C   0  0  0  0  0  0  0  0  0  0  0  0
   -2.0820   -1.0920    0.0000 C   0  0  0  0  0  0  0  0  0  0  0  0
   -2.6050    0.3140    0.0000 C   0  0  1  0  0  0  0  0  0  0  0  0
   -1.1520    0.6870    0.0000 C   0  0  1  0  0  0  0  0  0  0  0  0
    0.3470    0.7500    0.0000 C   0  0  0  0  0  0  0  0  0  0  0  0
    1.8450    0.8120    0.0000 C   0  0  0  0  0  0  0  0  0  0  0  0
    2.6760    2.0620    0.0000 C   0  0  0  0  0  0  0  0  0  0  0  0
    4.1200    1.6580    0.0000 N   0  0  0  0  0  0  0  0  0  0  0  0
    4.1830    0.1600    0.0000 C   0  0  0  0  0  0  0  0  0  0  0  0
    2.7770   -0.3630    0.0000 N   0  0  0  0  0  0  0  0  0  0  0  0
    2.3730   -1.8080    0.0000 C   0  0  0  0  0  0  0  0  0  0  0  0
   -1.0580    2.1840    0.0000 C   0  0  0  0  0  0  0  0  0  0  0  0
   -2.4520    2.7370    0.0000 O   0  0  0  0  0  0  0  0  0  0  0  0
   -3.4090    1.5810    0.0000 C   0  0  0  0  0  0  0  0  0  0  0  0
   -4.9060    1.6750    0.0000 O   0  0  0  0  0  0  0  0  0  0  0  0
   -1.0370   -3.9040    0.0000 H   0  0  0  0  0  0  0  0  0  0  0  0
   -0.1540   -1.9750    0.0000 H   0  0  0  0  0  0  0  0  0  0  0  0
   -2.9660   -3.0200    0.0000 H   0  0  0  0  0  0  0  0  0  0  0  0
   -3.4880   -1.6140    0.0000 H   0  0  0  0  0  0  0  0  0  0  0  0
   -1.3070   -0.9070    0.0000 H   0  0  0  0  0  0  0  0  0  0  0  0
   -3.9490   -0.3520    0.0000 H   0  0  0  0  0  0  0  0  0  0  0  0
   -0.9400   -0.0810    0.0000 H   0  0  0  0  0  0  0  0  0  0  0  0
    0.4670    2.2450    0.0000 H   0  0  0  0  0  0  0  0  0  0  0  0
    0.2260   -0.7450    0.0000 H   0  0  0  0  0  0  0  0  0  0  0  0
    2.1530    3.4680    0.0000 H   0  0  0  0  0  0  0  0  0  0  0  0
    5.4320   -0.6710    0.0000 H   0  0  0  0  0  0  0  0  0  0  0  0
    1.9700   -3.2530    0.0000 H   0  0  0  0  0  0  0  0  0  0  0  0
    3.8180   -2.2110    0.0000 H   0  0  0  0  0  0  0  0  0  0  0  0
    0.8900   -1.5830    0.0000 H   0  0  0  0  0  0  0  0  0  0  0  0
   -0.6540    3.6290    0.0000 H   0  0  0  0  0  0  0  0  0  0  0  0
    0.4410    2.1160    0.0000 H   0  0  0  0  0  0  0  0  0  0  0  0
  1  2  1  0  0  0  0
  1 16  1  0  0  0  0
  1 17  1  0  0  0  0
  1 18  1  0  0  0  0
  2  3  1  0  0  0  0
  2 19  1  0  0  0  0
  2 20  1  0  0  0  0
  3  4  1  0  0  0  0
  3 14  1  0  0  0  0
  3 21  1  1  0  0  0
  4  5  1  0  0  0  0
  4 12  1  0  0  0  0
  4 22  1  1  0  0  0
  5  6  1  0  0  0  0
  5 23  1  0  0  0  0
  5 24  1  0  0  0  0
  6  7  2  0  0  0  0
  6 10  1  0  0  0  0
  7  8  1  0  0  0  0
  7 25  1  0  0  0  0
  8  9  2  0  0  0  0
  9 10  1  0  0  0  0
  9 26  1  0  0  0  0
 10 11  1  0  0  0  0
 11 27  1  0  0  0  0
 11 28  1  0  0  0  0
 11 29  1  0  0  0  0
 12 13  1  0  0  0  0
 12 30  1  0  0  0  0
 12 31  1  0  0  0  0
 13 14  1  0  0  0  0
 14 15  2  0  0  0  0
M  END
$$$$
