2D_structures\o49_MMV020752_2D.pdb
 OpenBabel02272408253D

 56 61  0  0  0  0  0  0  0  0999 V2000
   10.3540    0.6480    0.0000 C   0  0  0  0  0  0  0  0  0  0  0  0
    8.8870    0.3320    0.0000 N   0  0  0  0  0  0  0  0  0  0  0  0
    8.4280   -1.0960    0.0000 C   0  0  0  0  0  0  0  0  0  0  0  0
    6.9620   -1.4120    0.0000 C   0  0  0  0  0  0  0  0  0  0  0  0
    5.9550   -0.3000    0.0000 N   0  0  0  0  0  0  0  0  0  0  0  0
    6.4140    1.1280    0.0000 C   0  0  0  0  0  0  0  0  0  0  0  0
    7.8810    1.4440    0.0000 C   0  0  0  0  0  0  0  0  0  0  0  0
    4.4880   -0.6160    0.0000 C   0  0  0  0  0  0  0  0  0  0  0  0
    4.0290   -2.0440    0.0000 C   0  0  0  0  0  0  0  0  0  0  0  0
    2.5630   -2.3600    0.0000 C   0  0  0  0  0  0  0  0  0  0  0  0
    1.5560   -1.2480    0.0000 C   0  0  0  0  0  0  0  0  0  0  0  0
    0.0560   -1.2520    0.0000 N   0  0  0  0  0  0  0  0  0  0  0  0
   -0.4120    0.1730    0.0000 C   0  0  0  0  0  0  0  0  0  0  0  0
    0.7990    1.0580    0.0000 N   0  0  0  0  0  0  0  0  0  0  0  0
    2.0150    0.1800    0.0000 C   0  0  0  0  0  0  0  0  0  0  0  0
    3.4820    0.4960    0.0000 C   0  0  0  0  0  0  0  0  0  0  0  0
   -1.8400    0.6330    0.0000 C   0  0  0  0  0  0  0  0  0  0  0  0
   -2.1560    2.0990    0.0000 C   0  0  0  0  0  0  0  0  0  0  0  0
   -3.5830    2.5590    0.0000 C   0  0  0  0  0  0  0  0  0  0  0  0
   -4.6950    1.5520    0.0000 C   0  0  0  0  0  0  0  0  0  0  0  0
   -6.1880    1.7040    0.0000 N   0  0  0  0  0  0  0  0  0  0  0  0
   -6.7940    0.3320    0.0000 C   0  0  0  0  0  0  0  0  0  0  0  0
   -5.6760   -0.6680    0.0000 N   0  0  0  0  0  0  0  0  0  0  0  0
   -4.3790    0.0850    0.0000 C   0  0  0  0  0  0  0  0  0  0  0  0
   -2.9520   -0.3740    0.0000 C   0  0  0  0  0  0  0  0  0  0  0  0
   -8.2600    0.0170    0.0000 C   0  0  0  0  0  0  0  0  0  0  0  0
   -9.2670    1.1280    0.0000 C   0  0  0  0  0  0  0  0  0  0  0  0
  -10.7330    0.8130    0.0000 C   0  0  0  0  0  0  0  0  0  0  0  0
  -11.1930   -0.6150    0.0000 C   0  0  0  0  0  0  0  0  0  0  0  0
  -12.6590   -0.9310    0.0000 O   0  0  0  0  0  0  0  0  0  0  0  0
  -10.1860   -1.7270    0.0000 C   0  0  0  0  0  0  0  0  0  0  0  0
   -8.7200   -1.4110    0.0000 C   0  0  0  0  0  0  0  0  0  0  0  0
   11.8200    0.9640    0.0000 H   0  0  0  0  0  0  0  0  0  0  0  0
   10.8460   -0.7690    0.0000 H   0  0  0  0  0  0  0  0  0  0  0  0
   10.2190    2.1420    0.0000 H   0  0  0  0  0  0  0  0  0  0  0  0
    9.8780   -1.4800    0.0000 H   0  0  0  0  0  0  0  0  0  0  0  0
    8.4840   -2.5950    0.0000 H   0  0  0  0  0  0  0  0  0  0  0  0
    7.5270   -2.8010    0.0000 H   0  0  0  0  0  0  0  0  0  0  0  0
    5.6920   -2.2110    0.0000 H   0  0  0  0  0  0  0  0  0  0  0  0
    4.9280    1.3320    0.0000 H   0  0  0  0  0  0  0  0  0  0  0  0
    6.3580    2.6270    0.0000 H   0  0  0  0  0  0  0  0  0  0  0  0
    7.3150    2.8330    0.0000 H   0  0  0  0  0  0  0  0  0  0  0  0
    9.0440    2.3910    0.0000 H   0  0  0  0  0  0  0  0  0  0  0  0
    5.0360   -3.1560    0.0000 H   0  0  0  0  0  0  0  0  0  0  0  0
    2.1030   -3.7880    0.0000 H   0  0  0  0  0  0  0  0  0  0  0  0
   -0.8230   -2.4680    0.0000 H   0  0  0  0  0  0  0  0  0  0  0  0
    3.9410    1.9240    0.0000 H   0  0  0  0  0  0  0  0  0  0  0  0
   -1.0440    3.1060    0.0000 H   0  0  0  0  0  0  0  0  0  0  0  0
   -3.8990    4.0250    0.0000 H   0  0  0  0  0  0  0  0  0  0  0  0
   -6.9410    3.0010    0.0000 H   0  0  0  0  0  0  0  0  0  0  0  0
   -2.6360   -1.8400    0.0000 H   0  0  0  0  0  0  0  0  0  0  0  0
   -8.8070    2.5560    0.0000 H   0  0  0  0  0  0  0  0  0  0  0  0
  -11.7400    1.9240    0.0000 H   0  0  0  0  0  0  0  0  0  0  0  0
  -13.1190   -2.3590    0.0000 H   0  0  0  0  0  0  0  0  0  0  0  0
  -10.6460   -3.1550    0.0000 H   0  0  0  0  0  0  0  0  0  0  0  0
   -7.7130   -2.5230    0.0000 H   0  0  0  0  0  0  0  0  0  0  0  0
  1  2  1  0  0  0  0
  1 33  1  0  0  0  0
  1 34  1  0  0  0  0
  1 35  1  0  0  0  0
  2  3  1  0  0  0  0
  2  7  1  0  0  0  0
  3  4  1  0  0  0  0
  3 36  1  0  0  0  0
  3 37  1  0  0  0  0
  4  5  1  0  0  0  0
  4 38  1  0  0  0  0
  4 39  1  0  0  0  0
  5  6  1  0  0  0  0
  5  8  1  0  0  0  0
  6  7  1  0  0  0  0
  6 40  1  0  0  0  0
  6 41  1  0  0  0  0
  7 42  1  0  0  0  0
  7 43  1  0  0  0  0
  8  9  2  0  0  0  0
  8 16  1  0  0  0  0
  9 10  1  0  0  0  0
  9 44  1  0  0  0  0
 10 11  2  0  0  0  0
 10 45  1  0  0  0  0
 11 12  1  0  0  0  0
 11 15  1  0  0  0  0
 12 13  1  0  0  0  0
 12 46  1  0  0  0  0
 13 14  2  0  0  0  0
 13 17  1  0  0  0  0
 14 15  1  0  0  0  0
 15 16  2  0  0  0  0
 16 47  1  0  0  0  0
 17 18  2  0  0  0  0
 17 25  1  0  0  0  0
 18 19  1  0  0  0  0
 18 48  1  0  0  0  0
 19 20  2  0  0  0  0
 19 49  1  0  0  0  0
 20 21  1  0  0  0  0
 20 24  1  0  0  0  0
 21 22  1  0  0  0  0
 21 50  1  0  0  0  0
 22 23  2  0  0  0  0
 22 26  1  0  0  0  0
 23 24  1  0  0  0  0
 24 25  2  0  0  0  0
 25 51  1  0  0  0  0
 26 27  2  0  0  0  0
 26 32  1  0  0  0  0
 27 28  1  0  0  0  0
 27 52  1  0  0  0  0
 28 29  2  0  0  0  0
 28 53  1  0  0  0  0
 29 30  1  0  0  0  0
 29 31  1  0  0  0  0
 30 54  1  0  0  0  0
 31 32  2  0  0  0  0
 31 55  1  0  0  0  0
 32 56  1  0  0  0  0
M  END
$$$$
