2D_structures\o4_MMV1578561_2D.pdb
 OpenBabel02272408253D

 40 41  0  0  0  0  0  0  0  0999 V2000
   -8.2830   -0.3410    0.0000 C   0  0  0  0  0  0  0  0  0  0  0  0
   -6.7860   -0.2440    0.0000 C   0  0  0  0  0  0  0  0  0  0  0  0
   -5.2890   -0.1470    0.0000 C   0  0  0  0  0  0  0  0  0  0  0  0
   -3.7920   -0.0500    0.0000 C   0  0  0  0  0  0  0  0  0  0  0  0
   -2.2950    0.0470    0.0000 C   0  0  0  0  0  0  0  0  0  0  0  0
   -0.7980    0.1440    0.0000 C   0  0  0  0  0  0  0  0  0  0  0  0
    0.6980    0.2400    0.0000 C   0  0  0  0  0  0  0  0  0  0  0  0
    2.1950    0.3370    0.0000 C   0  0  0  0  0  0  0  0  0  0  0  0
    2.8600    1.6820    0.0000 C   0  0  0  0  0  0  0  0  0  0  0  0
    2.0270    2.9300    0.0000 O   0  0  0  0  0  0  0  0  0  0  0  0
    4.3570    1.7790    0.0000 C   0  0  0  0  0  0  0  0  0  0  0  0
    5.0210    3.1240    0.0000 O   0  0  0  0  0  0  0  0  0  0  0  0
    5.1890    0.5310    0.0000 C   0  0  0  0  0  0  0  0  0  0  0  0
    6.6860    0.6280    0.0000 C   0  0  0  0  0  0  0  0  0  0  0  0
    7.5180   -0.6200    0.0000 C   0  0  0  0  0  0  0  0  0  0  0  0
    6.8540   -1.9650    0.0000 C   0  0  0  0  0  0  0  0  0  0  0  0
    5.3570   -2.0610    0.0000 C   0  0  0  0  0  0  0  0  0  0  0  0
    4.5250   -0.8140    0.0000 C   0  0  0  0  0  0  0  0  0  0  0  0
    3.0280   -0.9110    0.0000 N   0  0  0  0  0  0  0  0  0  0  0  0
   -9.7800   -0.4380    0.0000 H   0  0  0  0  0  0  0  0  0  0  0  0
   -8.3800    1.1560    0.0000 H   0  0  0  0  0  0  0  0  0  0  0  0
   -8.1860   -1.8380    0.0000 H   0  0  0  0  0  0  0  0  0  0  0  0
   -6.8830    1.2530    0.0000 H   0  0  0  0  0  0  0  0  0  0  0  0
   -6.6890   -1.7410    0.0000 H   0  0  0  0  0  0  0  0  0  0  0  0
   -5.1920   -1.6440    0.0000 H   0  0  0  0  0  0  0  0  0  0  0  0
   -5.3860    1.3500    0.0000 H   0  0  0  0  0  0  0  0  0  0  0  0
   -3.8890    1.4470    0.0000 H   0  0  0  0  0  0  0  0  0  0  0  0
   -3.6950   -1.5470    0.0000 H   0  0  0  0  0  0  0  0  0  0  0  0
   -2.1980   -1.4500    0.0000 H   0  0  0  0  0  0  0  0  0  0  0  0
   -2.3920    1.5440    0.0000 H   0  0  0  0  0  0  0  0  0  0  0  0
   -0.8950    1.6400    0.0000 H   0  0  0  0  0  0  0  0  0  0  0  0
   -0.7020   -1.3530    0.0000 H   0  0  0  0  0  0  0  0  0  0  0  0
    0.6020    1.7370    0.0000 H   0  0  0  0  0  0  0  0  0  0  0  0
    0.7950   -1.2560    0.0000 H   0  0  0  0  0  0  0  0  0  0  0  0
    2.6920    4.2750    0.0000 H   0  0  0  0  0  0  0  0  0  0  0  0
    7.3500    1.9730    0.0000 H   0  0  0  0  0  0  0  0  0  0  0  0
    9.0150   -0.5230    0.0000 H   0  0  0  0  0  0  0  0  0  0  0  0
    7.6860   -3.2120    0.0000 H   0  0  0  0  0  0  0  0  0  0  0  0
    4.6920   -3.4060    0.0000 H   0  0  0  0  0  0  0  0  0  0  0  0
    2.3630   -2.2550    0.0000 H   0  0  0  0  0  0  0  0  0  0  0  0
  1  2  1  0  0  0  0
  1 20  1  0  0  0  0
  1 21  1  0  0  0  0
  1 22  1  0  0  0  0
  2  3  1  0  0  0  0
  2 23  1  0  0  0  0
  2 24  1  0  0  0  0
  3  4  1  0  0  0  0
  3 25  1  0  0  0  0
  3 26  1  0  0  0  0
  4  5  1  0  0  0  0
  4 27  1  0  0  0  0
  4 28  1  0  0  0  0
  5  6  1  0  0  0  0
  5 29  1  0  0  0  0
  5 30  1  0  0  0  0
  6  7  1  0  0  0  0
  6 31  1  0  0  0  0
  6 32  1  0  0  0  0
  7  8  1  0  0  0  0
  7 33  1  0  0  0  0
  7 34  1  0  0  0  0
  8  9  2  0  0  0  0
  8 19  1  0  0  0  0
  9 10  1  0  0  0  0
  9 11  1  0  0  0  0
 10 35  1  0  0  0  0
 11 12  2  0  0  0  0
 11 13  1  0  0  0  0
 13 14  2  0  0  0  0
 13 18  1  0  0  0  0
 14 15  1  0  0  0  0
 14 36  1  0  0  0  0
 15 16  2  0  0  0  0
 15 37  1  0  0  0  0
 16 17  1  0  0  0  0
 16 38  1  0  0  0  0
 17 18  2  0  0  0  0
 17 39  1  0  0  0  0
 18 19  1  0  0  0  0
 19 40  1  0  0  0  0
M  END
$$$$
