2D_structures\o50_MMV1229204_2D.pdb
 OpenBabel02272408253D

 54 55  0  0  0  0  0  0  0  0999 V2000
    4.4760   -3.1710    0.0000 C   0  0  0  0  0  0  0  0  0  0  0  0
    3.3780   -2.1480    0.0000 C   0  0  0  0  0  0  0  0  0  0  0  0
    2.3560   -3.2460    0.0000 C   0  0  0  0  0  0  0  0  0  0  0  0
    4.4010   -1.0510    0.0000 C   0  0  0  0  0  0  0  0  0  0  0  0
    2.2810   -1.1260    0.0000 C   0  0  0  0  0  0  0  0  0  0  0  0
    0.8470   -1.5650    0.0000 C   0  0  0  0  0  0  0  0  0  0  0  0
   -0.2510   -0.5420    0.0000 C   0  0  0  0  0  0  0  0  0  0  0  0
   -1.6850   -0.9810    0.0000 C   0  0  0  0  0  0  0  0  0  0  0  0
   -3.1190   -1.4200    0.0000 C   0  0  0  0  0  0  0  0  0  0  0  0
   -4.5540   -1.8590    0.0000 C   0  0  0  0  0  0  0  0  0  0  0  0
   -4.8900   -3.3210    0.0000 O   0  0  0  0  0  0  0  0  0  0  0  0
   -5.6510   -0.8370    0.0000 N   0  0  0  0  0  0  0  0  0  0  0  0
   -5.7040    0.6620    0.0000 C   0  0  0  0  0  0  0  0  0  0  0  0
   -7.2030    0.6100    0.0000 C   0  0  0  0  0  0  0  0  0  0  0  0
   -7.1500   -0.8900    0.0000 C   0  0  0  0  0  0  0  0  0  0  0  0
    0.0860    0.9200    0.0000 C   0  0  0  0  0  0  0  0  0  0  0  0
    1.5210    1.3590    0.0000 C   0  0  0  0  0  0  0  0  0  0  0  0
    2.6180    0.3360    0.0000 C   0  0  0  0  0  0  0  0  0  0  0  0
    4.0520    0.7750    0.0000 O   0  0  0  0  0  0  0  0  0  0  0  0
    1.8570    2.8200    0.0000 C   0  0  0  0  0  0  0  0  0  0  0  0
    2.1940    4.2820    0.0000 C   0  0  0  0  0  0  0  0  0  0  0  0
    3.3190    2.4830    0.0000 C   0  0  0  0  0  0  0  0  0  0  0  0
    0.3960    3.1570    0.0000 C   0  0  0  0  0  0  0  0  0  0  0  0
    5.5730   -4.1930    0.0000 H   0  0  0  0  0  0  0  0  0  0  0  0
    5.1540   -2.6010    0.0000 H   0  0  0  0  0  0  0  0  0  0  0  0
    3.9550   -3.8880    0.0000 H   0  0  0  0  0  0  0  0  0  0  0  0
    1.3330   -4.3430    0.0000 H   0  0  0  0  0  0  0  0  0  0  0  0
    2.9250   -3.9240    0.0000 H   0  0  0  0  0  0  0  0  0  0  0  0
    1.2930   -2.6570    0.0000 H   0  0  0  0  0  0  0  0  0  0  0  0
    5.5500   -0.0860    0.0000 H   0  0  0  0  0  0  0  0  0  0  0  0
    5.1180   -1.5710    0.0000 H   0  0  0  0  0  0  0  0  0  0  0  0
    3.8050   -0.1340    0.0000 H   0  0  0  0  0  0  0  0  0  0  0  0
    0.5740   -2.7490    0.0000 H   0  0  0  0  0  0  0  0  0  0  0  0
   -2.1240    0.4530    0.0000 H   0  0  0  0  0  0  0  0  0  0  0  0
   -1.2460   -2.4150    0.0000 H   0  0  0  0  0  0  0  0  0  0  0  0
   -3.5580    0.0140    0.0000 H   0  0  0  0  0  0  0  0  0  0  0  0
   -2.6800   -2.8540    0.0000 H   0  0  0  0  0  0  0  0  0  0  0  0
   -5.7570    2.1610    0.0000 H   0  0  0  0  0  0  0  0  0  0  0  0
   -4.2050    0.7150    0.0000 H   0  0  0  0  0  0  0  0  0  0  0  0
   -8.7020    0.5570    0.0000 H   0  0  0  0  0  0  0  0  0  0  0  0
   -7.2560    2.1090    0.0000 H   0  0  0  0  0  0  0  0  0  0  0  0
   -7.0970   -2.3890    0.0000 H   0  0  0  0  0  0  0  0  0  0  0  0
   -8.6490   -0.9420    0.0000 H   0  0  0  0  0  0  0  0  0  0  0  0
   -1.0110    1.9420    0.0000 H   0  0  0  0  0  0  0  0  0  0  0  0
    5.2660   -0.1060    0.0000 H   0  0  0  0  0  0  0  0  0  0  0  0
    2.5310    5.7440    0.0000 H   0  0  0  0  0  0  0  0  0  0  0  0
    0.7850    4.7950    0.0000 H   0  0  0  0  0  0  0  0  0  0  0  0
    3.6860    4.1260    0.0000 H   0  0  0  0  0  0  0  0  0  0  0  0
    4.7810    2.1470    0.0000 H   0  0  0  0  0  0  0  0  0  0  0  0
    3.8320    3.8930    0.0000 H   0  0  0  0  0  0  0  0  0  0  0  0
    3.3460    0.9840    0.0000 H   0  0  0  0  0  0  0  0  0  0  0  0
   -1.0660    3.4940    0.0000 H   0  0  0  0  0  0  0  0  0  0  0  0
    0.5520    4.6490    0.0000 H   0  0  0  0  0  0  0  0  0  0  0  0
   -0.2850    1.8210    0.0000 H   0  0  0  0  0  0  0  0  0  0  0  0
  1  2  1  0  0  0  0
  1 24  1  0  0  0  0
  1 25  1  0  0  0  0
  1 26  1  0  0  0  0
  2  3  1  0  0  0  0
  2  4  1  0  0  0  0
  2  5  1  0  0  0  0
  3 27  1  0  0  0  0
  3 28  1  0  0  0  0
  3 29  1  0  0  0  0
  4 30  1  0  0  0  0
  4 31  1  0  0  0  0
  4 32  1  0  0  0  0
  5  6  2  0  0  0  0
  5 18  1  0  0  0  0
  6  7  1  0  0  0  0
  6 33  1  0  0  0  0
  7  8  1  0  0  0  0
  7 16  2  0  0  0  0
  8  9  1  0  0  0  0
  8 34  1  0  0  0  0
  8 35  1  0  0  0  0
  9 10  1  0  0  0  0
  9 36  1  0  0  0  0
  9 37  1  0  0  0  0
 10 11  2  0  0  0  0
 10 12  1  0  0  0  0
 12 13  1  0  0  0  0
 12 15  1  0  0  0  0
 13 14  1  0  0  0  0
 13 38  1  0  0  0  0
 13 39  1  0  0  0  0
 14 15  1  0  0  0  0
 14 40  1  0  0  0  0
 14 41  1  0  0  0  0
 15 42  1  0  0  0  0
 15 43  1  0  0  0  0
 16 17  1  0  0  0  0
 16 44  1  0  0  0  0
 17 18  2  0  0  0  0
 17 20  1  0  0  0  0
 18 19  1  0  0  0  0
 19 45  1  0  0  0  0
 20 21  1  0  0  0  0
 20 22  1  0  0  0  0
 20 23  1  0  0  0  0
 21 46  1  0  0  0  0
 21 47  1  0  0  0  0
 21 48  1  0  0  0  0
 22 49  1  0  0  0  0
 22 50  1  0  0  0  0
 22 51  1  0  0  0  0
 23 52  1  0  0  0  0
 23 53  1  0  0  0  0
 23 54  1  0  0  0  0
M  END
$$$$
