2D_structures\o52_MMV1578556_2D.pdb
 OpenBabel02272408253D

 42 44  0  0  1  0  0  0  0  0999 V2000
    3.5830   -1.1030    0.0000 C   0  0  0  0  0  0  0  0  0  0  0  0
    2.1590   -1.5730    0.0000 C   0  0  1  0  0  0  0  0  0  0  0  0
    0.9810   -2.5020    0.0000 C   0  0  0  0  0  0  0  0  0  0  0  0
   -0.4130   -1.9470    0.0000 C   0  0  0  0  0  0  0  0  0  0  0  0
   -0.6280   -0.4620    0.0000 C   0  0  1  0  0  0  0  0  0  0  0  0
   -1.8060   -1.3910    0.0000 O   0  0  0  0  0  0  0  0  0  0  0  0
   -2.0220    0.0930    0.0000 C   0  0  0  0  0  0  0  0  0  0  0  0
   -3.5210    0.1390    0.0000 C   0  0  0  0  0  0  0  0  0  0  0  0
   -2.3270   -1.3750    0.0000 C   0  0  0  0  0  0  0  0  0  0  0  0
   -2.2370    1.5780    0.0000 C   0  0  1  0  0  0  0  0  0  0  0  0
   -1.0590    2.5070    0.0000 C   0  0  0  0  0  0  0  0  0  0  0  0
    0.3340    1.9510    0.0000 C   0  0  0  0  0  0  0  0  0  0  0  0
    0.5500    0.4670    0.0000 C   0  0  1  0  0  0  0  0  0  0  0  0
    1.7270    1.3960    0.0000 C   0  0  0  0  0  0  0  0  0  0  0  0
    1.9430   -0.0890    0.0000 C   0  0  1  0  0  0  0  0  0  0  0  0
    1.0140    1.0890    0.0000 C   0  0  0  0  0  0  0  0  0  0  0  0
    5.0070   -0.6330    0.0000 H   0  0  0  0  0  0  0  0  0  0  0  0
    4.0530   -2.5270    0.0000 H   0  0  0  0  0  0  0  0  0  0  0  0
    3.4720    0.3930    0.0000 H   0  0  0  0  0  0  0  0  0  0  0  0
    2.8690   -2.8940    0.0000 H   0  0  0  0  0  0  0  0  0  0  0  0
    2.1000   -3.5010    0.0000 H   0  0  0  0  0  0  0  0  0  0  0  0
    0.1920   -3.7780    0.0000 H   0  0  0  0  0  0  0  0  0  0  0  0
   -0.7180   -3.4150    0.0000 H   0  0  0  0  0  0  0  0  0  0  0  0
   -1.7580   -2.6100    0.0000 H   0  0  0  0  0  0  0  0  0  0  0  0
   -3.1990   -0.8350    0.0000 H   0  0  0  0  0  0  0  0  0  0  0  0
   -5.0200    0.1840    0.0000 H   0  0  0  0  0  0  0  0  0  0  0  0
   -3.6580    1.6330    0.0000 H   0  0  0  0  0  0  0  0  0  0  0  0
   -3.9280   -1.3050    0.0000 H   0  0  0  0  0  0  0  0  0  0  0  0
   -2.6320   -2.8440    0.0000 H   0  0  0  0  0  0  0  0  0  0  0  0
   -3.8250   -1.4340    0.0000 H   0  0  0  0  0  0  0  0  0  0  0  0
   -0.9750   -2.0270    0.0000 H   0  0  0  0  0  0  0  0  0  0  0  0
   -3.5520    2.2990    0.0000 H   0  0  0  0  0  0  0  0  0  0  0  0
   -0.2700    3.7820    0.0000 H   0  0  0  0  0  0  0  0  0  0  0  0
   -2.1790    3.5050    0.0000 H   0  0  0  0  0  0  0  0  0  0  0  0
    1.7500    2.4460    0.0000 H   0  0  0  0  0  0  0  0  0  0  0  0
    0.4580    3.4460    0.0000 H   0  0  0  0  0  0  0  0  0  0  0  0
    3.0100    2.1740    0.0000 H   0  0  0  0  0  0  0  0  0  0  0  0
    3.1010    0.7920    0.0000 H   0  0  0  0  0  0  0  0  0  0  0  0
    1.4600    2.8720    0.0000 H   0  0  0  0  0  0  0  0  0  0  0  0
    3.1210    0.8400    0.0000 H   0  0  0  0  0  0  0  0  0  0  0  0
    2.1240    2.0980    0.0000 H   0  0  0  0  0  0  0  0  0  0  0  0
    0.7210    2.5600    0.0000 H   0  0  0  0  0  0  0  0  0  0  0  0
  1  2  1  0  0  0  0
  1 17  1  0  0  0  0
  1 18  1  0  0  0  0
  1 19  1  0  0  0  0
  2  3  1  0  0  0  0
  2 15  1  0  0  0  0
  2 20  1  6  0  0  0
  3  4  1  0  0  0  0
  3 21  1  0  0  0  0
  3 22  1  0  0  0  0
  4  5  1  0  0  0  0
  4 23  1  0  0  0  0
  4 24  1  0  0  0  0
  5  6  1  6  0  0  0
  5  7  1  0  0  0  0
  5 13  1  0  0  0  0
  6 25  1  0  0  0  0
  7  8  1  0  0  0  0
  7  9  1  0  0  0  0
  7 10  1  0  0  0  0
  8 26  1  0  0  0  0
  8 27  1  0  0  0  0
  8 28  1  0  0  0  0
  9 29  1  0  0  0  0
  9 30  1  0  0  0  0
  9 31  1  0  0  0  0
 10 11  1  0  0  0  0
 10 16  1  0  0  0  0
 10 32  1  6  0  0  0
 11 12  1  0  0  0  0
 11 33  1  0  0  0  0
 11 34  1  0  0  0  0
 12 13  1  0  0  0  0
 12 35  1  0  0  0  0
 12 36  1  0  0  0  0
 13 14  1  1  0  0  0
 13 15  1  0  0  0  0
 14 37  1  0  0  0  0
 14 38  1  0  0  0  0
 14 39  1  0  0  0  0
 15 16  1  0  0  0  0
 15 40  1  6  0  0  0
 16 41  1  0  0  0  0
 16 42  1  0  0  0  0
M  END
$$$$
