2D_structures\o54_MMV1341773_2D.pdb
 OpenBabel02272408253D

 34 37  0  0  0  0  0  0  0  0999 V2000
    5.1750    1.1830    0.0000 S   0  0  0  0  0  0  0  0  0  0  0  0
    4.3140   -0.0450    0.0000 C   0  0  0  0  0  0  0  0  0  0  0  0
    5.2170   -1.2440    0.0000 C   0  0  0  0  0  0  0  0  0  0  0  0
    6.6350   -0.7560    0.0000 C   0  0  0  0  0  0  0  0  0  0  0  0
    6.6090    0.7440    0.0000 C   0  0  0  0  0  0  0  0  0  0  0  0
    2.8140   -0.0710    0.0000 C   0  0  0  0  0  0  0  0  0  0  0  0
    2.0870   -1.3830    0.0000 O   0  0  0  0  0  0  0  0  0  0  0  0
    2.0420    1.2150    0.0000 N   0  0  0  0  0  0  0  0  0  0  0  0
    0.5430    1.1900    0.0000 C   0  0  0  0  0  0  0  0  0  0  0  0
   -0.9570    1.1640    0.0000 C   0  0  0  0  0  0  0  0  0  0  0  0
   -1.7290    2.4500    0.0000 C   0  0  0  0  0  0  0  0  0  0  0  0
   -3.2290    2.4240    0.0000 C   0  0  0  0  0  0  0  0  0  0  0  0
   -3.9570    1.1130    0.0000 C   0  0  0  0  0  0  0  0  0  0  0  0
   -3.1850   -0.1730    0.0000 C   0  0  0  0  0  0  0  0  0  0  0  0
   -4.1690   -1.3050    0.0000 C   0  0  0  0  0  0  0  0  0  0  0  0
   -5.5500   -0.7180    0.0000 C   0  0  0  0  0  0  0  0  0  0  0  0
   -6.8360   -1.4910    0.0000 O   0  0  0  0  0  0  0  0  0  0  0  0
   -5.4180    0.7760    0.0000 N   0  0  0  0  0  0  0  0  0  0  0  0
   -3.4060   -2.6050    0.0000 C   0  0  0  0  0  0  0  0  0  0  0  0
   -1.9120   -2.7360    0.0000 C   0  0  0  0  0  0  0  0  0  0  0  0
   -1.0510   -1.5070    0.0000 C   0  0  0  0  0  0  0  0  0  0  0  0
   -1.6850   -0.1480    0.0000 C   0  0  0  0  0  0  0  0  0  0  0  0
    4.7770   -2.6780    0.0000 H   0  0  0  0  0  0  0  0  0  0  0  0
    7.8630   -1.6170    0.0000 H   0  0  0  0  0  0  0  0  0  0  0  0
    7.8080    1.6460    0.0000 H   0  0  0  0  0  0  0  0  0  0  0  0
    2.7700    2.5270    0.0000 H   0  0  0  0  0  0  0  0  0  0  0  0
    0.5170    2.6890    0.0000 H   0  0  0  0  0  0  0  0  0  0  0  0
    0.5680   -0.3100    0.0000 H   0  0  0  0  0  0  0  0  0  0  0  0
   -1.0020    3.7620    0.0000 H   0  0  0  0  0  0  0  0  0  0  0  0
   -4.0010    3.7100    0.0000 H   0  0  0  0  0  0  0  0  0  0  0  0
   -6.5500    1.7600    0.0000 H   0  0  0  0  0  0  0  0  0  0  0  0
   -4.2670   -3.8330    0.0000 H   0  0  0  0  0  0  0  0  0  0  0  0
   -1.2790   -4.0960    0.0000 H   0  0  0  0  0  0  0  0  0  0  0  0
    0.4430   -1.6390    0.0000 H   0  0  0  0  0  0  0  0  0  0  0  0
  1  2  1  0  0  0  0
  1  5  1  0  0  0  0
  2  3  2  0  0  0  0
  2  6  1  0  0  0  0
  3  4  1  0  0  0  0
  3 23  1  0  0  0  0
  4  5  2  0  0  0  0
  4 24  1  0  0  0  0
  5 25  1  0  0  0  0
  6  7  2  0  0  0  0
  6  8  1  0  0  0  0
  8  9  1  0  0  0  0
  8 26  1  0  0  0  0
  9 10  1  0  0  0  0
  9 27  1  0  0  0  0
  9 28  1  0  0  0  0
 10 11  2  0  0  0  0
 10 22  1  0  0  0  0
 11 12  1  0  0  0  0
 11 29  1  0  0  0  0
 12 13  2  0  0  0  0
 12 30  1  0  0  0  0
 13 14  1  0  0  0  0
 13 18  1  0  0  0  0
 14 15  2  0  0  0  0
 14 22  1  0  0  0  0
 15 16  1  0  0  0  0
 15 19  1  0  0  0  0
 16 17  2  0  0  0  0
 16 18  1  0  0  0  0
 18 31  1  0  0  0  0
 19 20  2  0  0  0  0
 19 32  1  0  0  0  0
 20 21  1  0  0  0  0
 20 33  1  0  0  0  0
 21 22  2  0  0  0  0
 21 34  1  0  0  0  0
M  END
$$$$
