2D_structures\o56_MMV1633965_2D.pdb
 OpenBabel02272408253D

 68 72  0  0  1  0  0  0  0  0999 V2000
    1.0490   -2.3700    0.0000 F   0  0  0  0  0  0  0  0  0  0  0  0
    2.4110   -1.7420    0.0000 C   0  0  0  0  0  0  0  0  0  0  0  0
    2.5480   -0.2480    0.0000 C   0  0  0  0  0  0  0  0  0  0  0  0
    1.3230    0.6170    0.0000 N   0  0  0  0  0  0  0  0  0  0  0  0
   -0.0390   -0.0120    0.0000 C   0  0  0  0  0  0  0  0  0  0  0  0
   -0.0090   -0.9950    0.0000 O   0  0  0  0  0  0  0  0  0  0  0  0
   -1.2650    0.8540    0.0000 C   0  0  1  0  0  0  0  0  0  0  0  0
   -1.9040   -0.5030    0.0000 C   0  0  0  0  0  0  0  0  0  0  0  0
   -3.3990   -0.6280    0.0000 C   0  0  0  0  0  0  0  0  0  0  0  0
   -4.2540    0.6040    0.0000 C   0  0  1  0  0  0  0  0  0  0  0  0
   -5.3190   -0.4530    0.0000 C   0  0  0  0  0  0  0  0  0  0  0  0
   -6.3840   -1.5090    0.0000 O   0  0  0  0  0  0  0  0  0  0  0  0
   -7.8310   -1.1160    0.0000 C   0  0  0  0  0  0  0  0  0  0  0  0
   -8.2140    0.3350    0.0000 C   0  0  0  0  0  0  0  0  0  0  0  0
   -9.6610    0.7290    0.0000 C   0  0  0  0  0  0  0  0  0  0  0  0
  -10.7260   -0.3280    0.0000 C   0  0  0  0  0  0  0  0  0  0  0  0
  -12.1730    0.0660    0.0000 N   0  3  0  0  0  0  0  0  0  0  0  0
  -13.2380   -0.9910    0.0000 O   0  5  0  0  0  0  0  0  0  0  0  0
  -12.5560    1.5160    0.0000 O   0  0  0  0  0  0  0  0  0  0  0  0
  -10.3430   -1.7780    0.0000 C   0  0  0  0  0  0  0  0  0  0  0  0
   -8.8960   -2.1720    0.0000 C   0  0  0  0  0  0  0  0  0  0  0  0
   -3.6150    1.9610    0.0000 C   0  0  0  0  0  0  0  0  0  0  0  0
   -2.1200    2.0860    0.0000 C   0  0  0  0  0  0  0  0  0  0  0  0
    3.9100    0.3810    0.0000 C   0  0  0  0  0  0  0  0  0  0  0  0
    5.1350   -0.4840    0.0000 C   0  0  0  0  0  0  0  0  0  0  0  0
    6.4970    0.1440    0.0000 N   0  0  0  0  0  0  0  0  0  0  0  0
    7.7220   -0.7210    0.0000 C   0  0  0  0  0  0  0  0  0  0  0  0
    7.5860   -2.2150    0.0000 C   0  0  0  0  0  0  0  0  0  0  0  0
    6.2240   -2.8430    0.0000 C   0  0  0  0  0  0  0  0  0  0  0  0
    4.9990   -1.9780    0.0000 C   0  0  0  0  0  0  0  0  0  0  0  0
    3.6370   -2.6070    0.0000 C   0  0  0  0  0  0  0  0  0  0  0  0
    6.0880   -4.3370    0.0000 O   0  0  0  0  0  0  0  0  0  0  0  0
    8.8110   -3.0800    0.0000 C   0  0  0  0  0  0  0  0  0  0  0  0
   10.1730   -2.4510    0.0000 O   0  0  0  0  0  0  0  0  0  0  0  0
    8.6750   -4.5740    0.0000 O   0  0  0  0  0  0  0  0  0  0  0  0
    6.6340    1.6380    0.0000 C   0  0  0  0  0  0  0  0  0  0  0  0
    7.2730    2.9950    0.0000 C   0  0  0  0  0  0  0  0  0  0  0  0
    8.1280    1.7630    0.0000 C   0  0  0  0  0  0  0  0  0  0  0  0
    4.0460    1.8740    0.0000 O   0  0  0  0  0  0  0  0  0  0  0  0
    5.4080    2.5030    0.0000 C   0  0  0  0  0  0  0  0  0  0  0  0
    1.4590    2.1110    0.0000 H   0  0  0  0  0  0  0  0  0  0  0  0
   -0.2000    1.9100    0.0000 H   0  0  0  0  0  0  0  0  0  0  0  0
   -2.0400   -1.9970    0.0000 H   0  0  0  0  0  0  0  0  0  0  0  0
   -0.9930   -0.8760    0.0000 H   0  0  0  0  0  0  0  0  0  0  0  0
   -4.0760   -1.0480    0.0000 H   0  0  0  0  0  0  0  0  0  0  0  0
   -3.0160   -2.0790    0.0000 H   0  0  0  0  0  0  0  0  0  0  0  0
   -5.4800    1.4690    0.0000 H   0  0  0  0  0  0  0  0  0  0  0  0
   -4.8310   -1.0830    0.0000 H   0  0  0  0  0  0  0  0  0  0  0  0
   -6.3760    0.6120    0.0000 H   0  0  0  0  0  0  0  0  0  0  0  0
   -7.1490    1.3910    0.0000 H   0  0  0  0  0  0  0  0  0  0  0  0
  -10.0440    2.1790    0.0000 H   0  0  0  0  0  0  0  0  0  0  0  0
  -11.4080   -2.8350    0.0000 H   0  0  0  0  0  0  0  0  0  0  0  0
   -8.5130   -3.6230    0.0000 H   0  0  0  0  0  0  0  0  0  0  0  0
   -3.4790    3.4540    0.0000 H   0  0  0  0  0  0  0  0  0  0  0  0
   -5.0630    2.3540    0.0000 H   0  0  0  0  0  0  0  0  0  0  0  0
   -0.7580    2.7140    0.0000 H   0  0  0  0  0  0  0  0  0  0  0  0
   -2.5030    3.5360    0.0000 H   0  0  0  0  0  0  0  0  0  0  0  0
    9.1510   -0.2630    0.0000 H   0  0  0  0  0  0  0  0  0  0  0  0
    3.5000   -4.1010    0.0000 H   0  0  0  0  0  0  0  0  0  0  0  0
    9.9000   -5.4390    0.0000 H   0  0  0  0  0  0  0  0  0  0  0  0
    5.3250    2.3700    0.0000 H   0  0  0  0  0  0  0  0  0  0  0  0
    6.0470    3.8600    0.0000 H   0  0  0  0  0  0  0  0  0  0  0  0
    8.3380    4.0510    0.0000 H   0  0  0  0  0  0  0  0  0  0  0  0
    9.4900    2.3920    0.0000 H   0  0  0  0  0  0  0  0  0  0  0  0
    8.6850    0.3700    0.0000 H   0  0  0  0  0  0  0  0  0  0  0  0
    4.7800    3.8650    0.0000 H   0  0  0  0  0  0  0  0  0  0  0  0
    6.3480    1.3340    0.0000 H   0  0  0  0  0  0  0  0  0  0  0  0
    6.5780    3.4430    0.0000 H   0  0  0  0  0  0  0  0  0  0  0  0
  1  2  1  0  0  0  0
  2  3  2  0  0  0  0
  2 31  1  0  0  0  0
  3  4  1  0  0  0  0
  3 24  1  0  0  0  0
  4  5  1  0  0  0  0
  4 41  1  0  0  0  0
  5  6  2  0  0  0  0
  5  7  1  0  0  0  0
  7  8  1  0  0  0  0
  7 23  1  0  0  0  0
  7 42  1  6  0  0  0
  8  9  1  0  0  0  0
  8 43  1  0  0  0  0
  8 44  1  0  0  0  0
  9 10  1  0  0  0  0
  9 45  1  0  0  0  0
  9 46  1  0  0  0  0
 10 11  1  0  0  0  0
 10 22  1  0  0  0  0
 10 47  1  6  0  0  0
 11 12  1  0  0  0  0
 11 48  1  0  0  0  0
 11 49  1  0  0  0  0
 12 13  1  0  0  0  0
 13 14  2  0  0  0  0
 13 21  1  0  0  0  0
 14 15  1  0  0  0  0
 14 50  1  0  0  0  0
 15 16  2  0  0  0  0
 15 51  1  0  0  0  0
 16 17  1  0  0  0  0
 16 20  1  0  0  0  0
 17 18  1  0  0  0  0
 17 19  2  0  0  0  0
 20 21  2  0  0  0  0
 20 52  1  0  0  0  0
 21 53  1  0  0  0  0
 22 23  1  0  0  0  0
 22 54  1  0  0  0  0
 22 55  1  0  0  0  0
 23 56  1  0  0  0  0
 23 57  1  0  0  0  0
 24 25  2  0  0  0  0
 24 39  1  0  0  0  0
 25 26  1  0  0  0  0
 25 30  1  0  0  0  0
 26 27  1  0  0  0  0
 26 36  1  0  0  0  0
 27 28  2  0  0  0  0
 27 58  1  0  0  0  0
 28 29  1  0  0  0  0
 28 33  1  0  0  0  0
 29 30  1  0  0  0  0
 29 32  2  0  0  0  0
 30 31  2  0  0  0  0
 31 59  1  0  0  0  0
 33 34  2  0  0  0  0
 33 35  1  0  0  0  0
 35 60  1  0  0  0  0
 36 37  1  0  0  0  0
 36 38  1  0  0  0  0
 36 61  1  0  0  0  0
 37 38  1  0  0  0  0
 37 62  1  0  0  0  0
 37 63  1  0  0  0  0
 38 64  1  0  0  0  0
 38 65  1  0  0  0  0
 39 40  1  0  0  0  0
 40 66  1  0  0  0  0
 40 67  1  0  0  0  0
 40 68  1  0  0  0  0
M  CHG  2  17   1  18  -1
M  END
$$$$
