2D_structures\o58_MMV1593541_2D.pdb
 OpenBabel02272408253D

 52 56  0  0  0  0  0  0  0  0999 V2000
   -1.6940   -2.1970    0.0000 N   0  0  0  0  0  0  0  0  0  0  0  0
   -2.5560   -0.9690    0.0000 C   0  0  0  0  0  0  0  0  0  0  0  0
   -4.0500   -1.1030    0.0000 C   0  0  0  0  0  0  0  0  0  0  0  0
   -4.9130    0.1250    0.0000 C   0  0  0  0  0  0  0  0  0  0  0  0
   -4.2810    1.4850    0.0000 N   0  0  0  0  0  0  0  0  0  0  0  0
   -2.7870    1.6180    0.0000 C   0  0  0  0  0  0  0  0  0  0  0  0
   -2.1550    2.9790    0.0000 C   0  0  0  0  0  0  0  0  0  0  0  0
   -0.6610    3.1120    0.0000 C   0  0  0  0  0  0  0  0  0  0  0  0
    0.2010    1.8850    0.0000 C   0  0  0  0  0  0  0  0  0  0  0  0
    1.6950    2.0180    0.0000 N   0  0  0  0  0  0  0  0  0  0  0  0
    2.5580    0.7910    0.0000 C   0  0  0  0  0  0  0  0  0  0  0  0
    4.0520    0.9240    0.0000 C   0  0  0  0  0  0  0  0  0  0  0  0
    4.9140   -0.3040    0.0000 C   0  0  0  0  0  0  0  0  0  0  0  0
    4.2820   -1.6640    0.0000 N   0  0  0  0  0  4  0  0  0  0  0  0
    2.7880   -1.7970    0.0000 C   0  0  0  0  0  0  0  0  0  0  0  0
    2.1570   -3.1580    0.0000 N   0  0  0  0  0  0  0  0  0  0  0  0
    1.9260   -0.5700    0.0000 N   0  0  0  0  0  0  0  0  0  0  0  0
    6.4080   -0.1700    0.0000 C   0  0  0  0  0  0  0  0  0  0  0  0
    7.0400    1.1900    0.0000 C   0  0  0  0  0  0  0  0  0  0  0  0
    8.5340    1.3230    0.0000 C   0  0  0  0  0  0  0  0  0  0  0  0
    9.3960    0.0960    0.0000 C   0  0  0  0  0  0  0  0  0  0  0  0
    8.7650   -1.2650    0.0000 C   0  0  0  0  0  0  0  0  0  0  0  0
    7.2700   -1.3980    0.0000 C   0  0  0  0  0  0  0  0  0  0  0  0
   -0.4310    0.5240    0.0000 C   0  0  0  0  0  0  0  0  0  0  0  0
   -1.9250    0.3910    0.0000 C   0  0  0  0  0  0  0  0  0  0  0  0
   -6.4070   -0.0090    0.0000 C   0  0  0  0  0  0  0  0  0  0  0  0
   -7.2690    1.2190    0.0000 C   0  0  0  0  0  0  0  0  0  0  0  0
   -8.7630    1.0860    0.0000 C   0  0  0  0  0  0  0  0  0  0  0  0
   -9.3950   -0.2750    0.0000 C   0  0  0  0  0  0  0  0  0  0  0  0
  -10.8890   -0.4080    0.0000 F   0  0  0  0  0  0  0  0  0  0  0  0
   -8.5330   -1.5020    0.0000 C   0  0  0  0  0  0  0  0  0  0  0  0
   -7.0390   -1.3690    0.0000 C   0  0  0  0  0  0  0  0  0  0  0  0
   -2.3260   -3.5570    0.0000 H   0  0  0  0  0  0  0  0  0  0  0  0
   -0.2000   -2.0640    0.0000 H   0  0  0  0  0  0  0  0  0  0  0  0
   -4.6820   -2.4630    0.0000 H   0  0  0  0  0  0  0  0  0  0  0  0
   -3.0180    4.2060    0.0000 H   0  0  0  0  0  0  0  0  0  0  0  0
   -0.0300    4.4730    0.0000 H   0  0  0  0  0  0  0  0  0  0  0  0
    2.3270    3.3780    0.0000 H   0  0  0  0  0  0  0  0  0  0  0  0
    4.6830    2.2840    0.0000 H   0  0  0  0  0  0  0  0  0  0  0  0
    3.0190   -4.3850    0.0000 H   0  0  0  0  0  0  0  0  0  0  0  0
    0.6620   -3.2910    0.0000 H   0  0  0  0  0  0  0  0  0  0  0  0
    6.1770    2.4170    0.0000 H   0  0  0  0  0  0  0  0  0  0  0  0
    9.1660    2.6840    0.0000 H   0  0  0  0  0  0  0  0  0  0  0  0
   10.8900    0.2290    0.0000 H   0  0  0  0  0  0  0  0  0  0  0  0
    9.6270   -2.4920    0.0000 H   0  0  0  0  0  0  0  0  0  0  0  0
    6.6390   -2.7580    0.0000 H   0  0  0  0  0  0  0  0  0  0  0  0
    0.4320   -0.7030    0.0000 H   0  0  0  0  0  0  0  0  0  0  0  0
   -6.6380    2.5790    0.0000 H   0  0  0  0  0  0  0  0  0  0  0  0
   -9.6260    2.3130    0.0000 H   0  0  0  0  0  0  0  0  0  0  0  0
   -9.1640   -2.8630    0.0000 H   0  0  0  0  0  0  0  0  0  0  0  0
   -6.1760   -2.5960    0.0000 H   0  0  0  0  0  0  0  0  0  0  0  0
    0.9454   -0.6574    0.0000 H   0  0  0  0  0  0  0  0  0  0  0  0
  1  2  1  0  0  0  0
  1 33  1  0  0  0  0
  1 34  1  0  0  0  0
  2  3  2  0  0  0  0
  2 25  1  0  0  0  0
  3  4  1  0  0  0  0
  3 35  1  0  0  0  0
  4  5  2  0  0  0  0
  4 26  1  0  0  0  0
  5  6  1  0  0  0  0
  6  7  2  0  0  0  0
  6 25  1  0  0  0  0
  7  8  1  0  0  0  0
  7 36  1  0  0  0  0
  8  9  2  0  0  0  0
  8 37  1  0  0  0  0
  9 10  1  0  0  0  0
  9 24  1  0  0  0  0
 10 11  1  0  0  0  0
 10 38  1  0  0  0  0
 11 12  2  0  0  0  0
 11 17  1  0  0  0  0
 12 13  1  0  0  0  0
 12 39  1  0  0  0  0
 13 14  2  0  0  0  0
 13 18  1  0  0  0  0
 14 15  2  0  0  0  0
 15 16  1  0  0  0  0
 15 17  1  0  0  0  0
 16 40  1  0  0  0  0
 16 41  1  0  0  0  0
 17 52  1  0  0  0  0
 18 19  2  0  0  0  0
 18 23  1  0  0  0  0
 19 20  1  0  0  0  0
 19 42  1  0  0  0  0
 20 21  2  0  0  0  0
 20 43  1  0  0  0  0
 21 22  1  0  0  0  0
 21 44  1  0  0  0  0
 22 23  2  0  0  0  0
 22 45  1  0  0  0  0
 23 46  1  0  0  0  0
 24 25  2  0  0  0  0
 24 47  1  0  0  0  0
 26 27  2  0  0  0  0
 26 32  1  0  0  0  0
 27 28  1  0  0  0  0
 27 48  1  0  0  0  0
 28 29  2  0  0  0  0
 28 49  1  0  0  0  0
 29 30  1  0  0  0  0
 29 31  1  0  0  0  0
 31 32  2  0  0  0  0
 31 50  1  0  0  0  0
 32 51  1  0  0  0  0
M  END
$$$$
