2D_structures\o59_MMV1593537_2D.pdb
 OpenBabel02272408253D

 43 47  0  0  0  0  0  0  0  0999 V2000
    6.6740   -3.2700    0.0000 F   0  0  0  0  0  0  0  0  0  0  0  0
    5.2790   -2.7170    0.0000 C   0  0  0  0  0  0  0  0  0  0  0  0
    4.1030   -3.6480    0.0000 C   0  0  0  0  0  0  0  0  0  0  0  0
    2.7090   -3.0950    0.0000 C   0  0  0  0  0  0  0  0  0  0  0  0
    2.4910   -1.6110    0.0000 C   0  0  0  0  0  0  0  0  0  0  0  0
    3.6670   -0.6800    0.0000 C   0  0  0  0  0  0  0  0  0  0  0  0
    5.0610   -1.2330    0.0000 C   0  0  0  0  0  0  0  0  0  0  0  0
    1.0970   -1.0580    0.0000 C   0  0  0  0  0  0  0  0  0  0  0  0
   -0.1700   -1.8610    0.0000 N   0  0  0  0  0  0  0  0  0  0  0  0
   -1.3260   -0.9040    0.0000 C   0  0  0  0  0  0  0  0  0  0  0  0
   -0.7720    0.4900    0.0000 N   0  0  0  0  0  0  0  0  0  0  0  0
    0.7240    0.3950    0.0000 C   0  0  0  0  0  0  0  0  0  0  0  0
    1.6810    1.5500    0.0000 C   0  0  0  0  0  0  0  0  0  0  0  0
    3.1600    1.2990    0.0000 C   0  0  0  0  0  0  0  0  0  0  0  0
    4.1170    2.4540    0.0000 C   0  0  0  0  0  0  0  0  0  0  0  0
    3.5950    3.8610    0.0000 C   0  0  0  0  0  0  0  0  0  0  0  0
    4.5520    5.0160    0.0000 F   0  0  0  0  0  0  0  0  0  0  0  0
    2.1160    4.1120    0.0000 C   0  0  0  0  0  0  0  0  0  0  0  0
    1.1590    2.9570    0.0000 C   0  0  0  0  0  0  0  0  0  0  0  0
   -2.7790   -1.2760    0.0000 C   0  0  0  0  0  0  0  0  0  0  0  0
   -3.3320   -2.6700    0.0000 C   0  0  0  0  0  0  0  0  0  0  0  0
   -4.8290   -2.5750    0.0000 N   0  0  0  0  0  0  0  0  0  0  0  0
   -5.2010   -1.1220    0.0000 C   0  0  0  0  0  0  0  0  0  0  0  0
   -6.5300   -0.4260    0.0000 C   0  0  0  0  0  0  0  0  0  0  0  0
   -6.5920    1.0720    0.0000 C   0  0  0  0  0  0  0  0  0  0  0  0
   -5.3250    1.8750    0.0000 C   0  0  0  0  0  0  0  0  0  0  0  0
   -5.3860    3.3740    0.0000 Br  0  0  0  0  0  0  0  0  0  0  0  0
   -3.9960    1.1800    0.0000 C   0  0  0  0  0  0  0  0  0  0  0  0
   -3.9340   -0.3190    0.0000 C   0  0  0  0  0  0  0  0  0  0  0  0
    4.3210   -5.1320    0.0000 H   0  0  0  0  0  0  0  0  0  0  0  0
    1.5330   -4.0260    0.0000 H   0  0  0  0  0  0  0  0  0  0  0  0
    3.7450    0.1130    0.0000 H   0  0  0  0  0  0  0  0  0  0  0  0
    6.2370   -0.3020    0.0000 H   0  0  0  0  0  0  0  0  0  0  0  0
   -1.5750    1.7570    0.0000 H   0  0  0  0  0  0  0  0  0  0  0  0
    3.6100    0.6410    0.0000 H   0  0  0  0  0  0  0  0  0  0  0  0
    5.5960    2.2030    0.0000 H   0  0  0  0  0  0  0  0  0  0  0  0
    1.5940    5.5180    0.0000 H   0  0  0  0  0  0  0  0  0  0  0  0
   -0.3190    3.2080    0.0000 H   0  0  0  0  0  0  0  0  0  0  0  0
   -2.5290   -3.9370    0.0000 H   0  0  0  0  0  0  0  0  0  0  0  0
   -5.7860   -3.7300    0.0000 H   0  0  0  0  0  0  0  0  0  0  0  0
   -7.7970   -1.2290    0.0000 H   0  0  0  0  0  0  0  0  0  0  0  0
   -7.9200    1.7680    0.0000 H   0  0  0  0  0  0  0  0  0  0  0  0
   -2.7290    1.9820    0.0000 H   0  0  0  0  0  0  0  0  0  0  0  0
  1  2  1  0  0  0  0
  2  3  2  0  0  0  0
  2  7  1  0  0  0  0
  3  4  1  0  0  0  0
  3 30  1  0  0  0  0
  4  5  2  0  0  0  0
  4 31  1  0  0  0  0
  5  6  1  0  0  0  0
  5  8  1  0  0  0  0
  6  7  2  0  0  0  0
  6 32  1  0  0  0  0
  7 33  1  0  0  0  0
  8  9  1  0  0  0  0
  8 12  2  0  0  0  0
  9 10  2  0  0  0  0
 10 11  1  0  0  0  0
 10 20  1  0  0  0  0
 11 12  1  0  0  0  0
 11 34  1  0  0  0  0
 12 13  1  0  0  0  0
 13 14  2  0  0  0  0
 13 19  1  0  0  0  0
 14 15  1  0  0  0  0
 14 35  1  0  0  0  0
 15 16  2  0  0  0  0
 15 36  1  0  0  0  0
 16 17  1  0  0  0  0
 16 18  1  0  0  0  0
 18 19  2  0  0  0  0
 18 37  1  0  0  0  0
 19 38  1  0  0  0  0
 20 21  2  0  0  0  0
 20 29  1  0  0  0  0
 21 22  1  0  0  0  0
 21 39  1  0  0  0  0
 22 23  1  0  0  0  0
 22 40  1  0  0  0  0
 23 24  2  0  0  0  0
 23 29  1  0  0  0  0
 24 25  1  0  0  0  0
 24 41  1  0  0  0  0
 25 26  2  0  0  0  0
 25 42  1  0  0  0  0
 26 27  1  0  0  0  0
 26 28  1  0  0  0  0
 28 29  2  0  0  0  0
 28 43  1  0  0  0  0
M  END
$$$$
