2D_structures\o5_MMV1578557_2D.pdb
 OpenBabel02272408253D

 44 46  0  0  0  0  0  0  0  0999 V2000
   -4.9140   -1.5690    0.0000 C   0  0  0  0  0  0  0  0  0  0  0  0
   -5.0350   -0.0740    0.0000 C   0  0  0  0  0  0  0  0  0  0  0  0
   -6.3910    0.5680    0.0000 C   0  0  0  0  0  0  0  0  0  0  0  0
   -7.6250   -0.2850    0.0000 N   0  0  0  0  0  0  0  0  0  0  0  0
   -6.5130    2.0630    0.0000 C   0  0  0  0  0  0  0  0  0  0  0  0
   -5.2790    2.9160    0.0000 C   0  0  0  0  0  0  0  0  0  0  0  0
   -3.9240    2.2740    0.0000 C   0  0  0  0  0  0  0  0  0  0  0  0
   -3.8020    0.7790    0.0000 C   0  0  0  0  0  0  0  0  0  0  0  0
   -2.4460    0.1370    0.0000 C   0  0  0  0  0  0  0  0  0  0  0  0
   -1.0900   -0.5050    0.0000 N   0  0  0  0  0  0  0  0  0  0  0  0
   -0.9680   -2.0000    0.0000 C   0  0  0  0  0  0  0  0  0  0  0  0
    0.3870   -2.6420    0.0000 C   0  0  0  0  0  0  0  0  0  0  0  0
    1.6210   -1.7890    0.0000 C   0  0  0  0  0  0  0  0  0  0  0  0
    1.4990   -0.2940    0.0000 C   0  0  0  0  0  0  0  0  0  0  0  0
    0.1430    0.3480    0.0000 C   0  0  0  0  0  0  0  0  0  0  0  0
    0.0220    1.8430    0.0000 O   0  0  0  0  0  0  0  0  0  0  0  0
    2.9770   -2.4310    0.0000 O   0  0  0  0  0  0  0  0  0  0  0  0
    4.2110   -1.5770    0.0000 C   0  0  0  0  0  0  0  0  0  0  0  0
    5.4440   -0.7240    0.0000 C   0  0  0  0  0  0  0  0  0  0  0  0
    6.6780    0.1290    0.0000 C   0  0  0  0  0  0  0  0  0  0  0  0
    6.7130    1.6280    0.0000 C   0  0  0  0  0  0  0  0  0  0  0  0
    8.1500    2.0590    0.0000 C   0  0  0  0  0  0  0  0  0  0  0  0
    9.0030    0.8250    0.0000 C   0  0  0  0  0  0  0  0  0  0  0  0
    8.0940   -0.3680    0.0000 S   0  0  0  0  0  0  0  0  0  0  0  0
   -4.7920   -3.0640    0.0000 H   0  0  0  0  0  0  0  0  0  0  0  0
   -3.7000   -1.6190    0.0000 H   0  0  0  0  0  0  0  0  0  0  0  0
   -6.4090   -1.6910    0.0000 H   0  0  0  0  0  0  0  0  0  0  0  0
   -8.9810    0.3560    0.0000 H   0  0  0  0  0  0  0  0  0  0  0  0
   -7.5030   -1.7800    0.0000 H   0  0  0  0  0  0  0  0  0  0  0  0
   -7.8690    2.7050    0.0000 H   0  0  0  0  0  0  0  0  0  0  0  0
   -5.4010    4.4110    0.0000 H   0  0  0  0  0  0  0  0  0  0  0  0
   -2.6900    3.1270    0.0000 H   0  0  0  0  0  0  0  0  0  0  0  0
   -2.8280   -1.0160    0.0000 H   0  0  0  0  0  0  0  0  0  0  0  0
   -1.8040    1.4930    0.0000 H   0  0  0  0  0  0  0  0  0  0  0  0
   -2.2020   -2.8530    0.0000 H   0  0  0  0  0  0  0  0  0  0  0  0
    0.5090   -4.1370    0.0000 H   0  0  0  0  0  0  0  0  0  0  0  0
    2.7330    0.5600    0.0000 H   0  0  0  0  0  0  0  0  0  0  0  0
    3.3570   -0.3440    0.0000 H   0  0  0  0  0  0  0  0  0  0  0  0
    5.0640   -2.8110    0.0000 H   0  0  0  0  0  0  0  0  0  0  0  0
    4.5910    0.5090    0.0000 H   0  0  0  0  0  0  0  0  0  0  0  0
    6.2980   -1.9580    0.0000 H   0  0  0  0  0  0  0  0  0  0  0  0
    5.5200    2.5380    0.0000 H   0  0  0  0  0  0  0  0  0  0  0  0
    8.6470    3.4740    0.0000 H   0  0  0  0  0  0  0  0  0  0  0  0
   10.5030    0.7900    0.0000 H   0  0  0  0  0  0  0  0  0  0  0  0
  1  2  1  0  0  0  0
  1 25  1  0  0  0  0
  1 26  1  0  0  0  0
  1 27  1  0  0  0  0
  2  3  2  0  0  0  0
  2  8  1  0  0  0  0
  3  4  1  0  0  0  0
  3  5  1  0  0  0  0
  4 28  1  0  0  0  0
  4 29  1  0  0  0  0
  5  6  2  0  0  0  0
  5 30  1  0  0  0  0
  6  7  1  0  0  0  0
  6 31  1  0  0  0  0
  7  8  2  0  0  0  0
  7 32  1  0  0  0  0
  8  9  1  0  0  0  0
  9 10  1  0  0  0  0
  9 33  1  0  0  0  0
  9 34  1  0  0  0  0
 10 11  1  0  0  0  0
 10 15  1  0  0  0  0
 11 12  2  0  0  0  0
 11 35  1  0  0  0  0
 12 13  1  0  0  0  0
 12 36  1  0  0  0  0
 13 14  2  0  0  0  0
 13 17  1  0  0  0  0
 14 15  1  0  0  0  0
 14 37  1  0  0  0  0
 15 16  2  0  0  0  0
 17 18  1  0  0  0  0
 18 19  1  0  0  0  0
 18 38  1  0  0  0  0
 18 39  1  0  0  0  0
 19 20  1  0  0  0  0
 19 40  1  0  0  0  0
 19 41  1  0  0  0  0
 20 21  2  0  0  0  0
 20 24  1  0  0  0  0
 21 22  1  0  0  0  0
 21 42  1  0  0  0  0
 22 23  2  0  0  0  0
 22 43  1  0  0  0  0
 23 24  1  0  0  0  0
 23 44  1  0  0  0  0
M  END
$$$$
