2D_structures\o60_MMV1582492_2D.pdb
 OpenBabel02272408253D

 48 52  0  0  1  0  0  0  0  0999 V2000
    1.3410    0.5940    0.0000 C   0  0  0  0  0  0  0  0  0  0  0  0
   -0.1130    0.9590    0.0000 N   0  0  0  0  0  0  0  0  0  0  0  0
   -1.1570   -0.1180    0.0000 C   0  0  1  0  0  0  0  0  0  0  0  0
   -2.6120    0.2470    0.0000 N   0  0  0  0  0  0  0  0  0  0  0  0
   -3.0230    1.6890    0.0000 C   0  0  0  0  0  0  0  0  0  0  0  0
   -4.4780    2.0540    0.0000 O   0  0  0  0  0  0  0  0  0  0  0  0
   -1.9800    2.7670    0.0000 C   0  0  0  0  0  0  0  0  0  0  0  0
   -2.3910    4.2090    0.0000 C   0  0  0  0  0  0  0  0  0  0  0  0
   -1.3470    5.2870    0.0000 C   0  0  0  0  0  0  0  0  0  0  0  0
   -1.7590    6.7290    0.0000 F   0  0  0  0  0  0  0  0  0  0  0  0
    0.1070    4.9210    0.0000 C   0  0  0  0  0  0  0  0  0  0  0  0
    0.5190    3.4790    0.0000 C   0  0  0  0  0  0  0  0  0  0  0  0
   -0.5250    2.4020    0.0000 C   0  0  0  0  0  0  0  0  0  0  0  0
   -3.6560   -0.8310    0.0000 C   0  0  0  0  0  0  0  0  0  0  0  0
   -5.1100   -0.4660    0.0000 C   0  0  0  0  0  0  0  0  0  0  0  0
   -6.1540   -1.5430    0.0000 C   0  0  0  0  0  0  0  0  0  0  0  0
   -5.7430   -2.9860    0.0000 C   0  0  0  0  0  0  0  0  0  0  0  0
   -4.2880   -3.3510    0.0000 C   0  0  0  0  0  0  0  0  0  0  0  0
   -3.2440   -2.2730    0.0000 C   0  0  0  0  0  0  0  0  0  0  0  0
    0.0850   -0.9590    0.0000 C   0  0  0  0  0  0  0  0  0  0  0  0
    0.1350   -2.4580    0.0000 C   0  0  0  0  0  0  0  0  0  0  0  0
    1.5770   -2.8740    0.0000 C   0  0  0  0  0  0  0  0  0  0  0  0
    2.4170   -1.6320    0.0000 C   0  0  0  0  0  0  0  0  0  0  0  0
    1.4960   -0.4480    0.0000 S   0  0  0  0  0  0  0  0  0  0  0  0
    3.9160   -1.5810    0.0000 C   0  0  0  0  0  0  0  0  0  0  0  0
    4.8380   -2.7650    0.0000 C   0  0  0  0  0  0  0  0  0  0  0  0
    6.2490   -2.2540    0.0000 S   0  0  0  0  0  0  0  0  0  0  0  0
    6.1980   -0.7550    0.0000 C   0  0  0  0  0  0  0  0  0  0  0  0
    7.3820    0.1670    0.0000 C   0  0  0  0  0  0  0  0  0  0  0  0
    4.7570   -0.3390    0.0000 N   0  0  0  0  0  0  0  0  0  0  0  0
    2.7960    0.2290    0.0000 H   0  0  0  0  0  0  0  0  0  0  0  0
    1.7060    2.0490    0.0000 H   0  0  0  0  0  0  0  0  0  0  0  0
    1.3400   -0.2030    0.0000 H   0  0  0  0  0  0  0  0  0  0  0  0
   -1.7690   -1.4880    0.0000 H   0  0  0  0  0  0  0  0  0  0  0  0
   -3.8460    4.5740    0.0000 H   0  0  0  0  0  0  0  0  0  0  0  0
    1.1510    5.9990    0.0000 H   0  0  0  0  0  0  0  0  0  0  0  0
    1.9740    3.1140    0.0000 H   0  0  0  0  0  0  0  0  0  0  0  0
   -5.5220    0.9770    0.0000 H   0  0  0  0  0  0  0  0  0  0  0  0
   -7.6090   -1.1780    0.0000 H   0  0  0  0  0  0  0  0  0  0  0  0
   -6.7860   -4.0630    0.0000 H   0  0  0  0  0  0  0  0  0  0  0  0
   -3.8760   -4.7930    0.0000 H   0  0  0  0  0  0  0  0  0  0  0  0
   -1.7890   -2.6380    0.0000 H   0  0  0  0  0  0  0  0  0  0  0  0
   -1.0480   -3.3800    0.0000 H   0  0  0  0  0  0  0  0  0  0  0  0
    2.0880   -4.2840    0.0000 H   0  0  0  0  0  0  0  0  0  0  0  0
    4.4230   -4.2060    0.0000 H   0  0  0  0  0  0  0  0  0  0  0  0
    8.5650    1.0890    0.0000 H   0  0  0  0  0  0  0  0  0  0  0  0
    6.4600    1.3500    0.0000 H   0  0  0  0  0  0  0  0  0  0  0  0
    8.3040   -1.0160    0.0000 H   0  0  0  0  0  0  0  0  0  0  0  0
  1  2  1  0  0  0  0
  1 31  1  0  0  0  0
  1 32  1  0  0  0  0
  1 33  1  0  0  0  0
  2  3  1  0  0  0  0
  2 13  1  0  0  0  0
  3  4  1  0  0  0  0
  3 20  1  0  0  0  0
  3 34  1  1  0  0  0
  4  5  1  0  0  0  0
  4 14  1  0  0  0  0
  5  6  2  0  0  0  0
  5  7  1  0  0  0  0
  7  8  2  0  0  0  0
  7 13  1  0  0  0  0
  8  9  1  0  0  0  0
  8 35  1  0  0  0  0
  9 10  1  0  0  0  0
  9 11  2  0  0  0  0
 11 12  1  0  0  0  0
 11 36  1  0  0  0  0
 12 13  2  0  0  0  0
 12 37  1  0  0  0  0
 14 15  2  0  0  0  0
 14 19  1  0  0  0  0
 15 16  1  0  0  0  0
 15 38  1  0  0  0  0
 16 17  2  0  0  0  0
 16 39  1  0  0  0  0
 17 18  1  0  0  0  0
 17 40  1  0  0  0  0
 18 19  2  0  0  0  0
 18 41  1  0  0  0  0
 19 42  1  0  0  0  0
 20 21  2  0  0  0  0
 20 24  1  0  0  0  0
 21 22  1  0  0  0  0
 21 43  1  0  0  0  0
 22 23  2  0  0  0  0
 22 44  1  0  0  0  0
 23 24  1  0  0  0  0
 23 25  1  0  0  0  0
 25 26  2  0  0  0  0
 25 30  1  0  0  0  0
 26 27  1  0  0  0  0
 26 45  1  0  0  0  0
 27 28  1  0  0  0  0
 28 29  1  0  0  0  0
 28 30  2  0  0  0  0
 29 46  1  0  0  0  0
 29 47  1  0  0  0  0
 29 48  1  0  0  0  0
M  END
$$$$
