2D_structures\o61_MMV1582491_2D.pdb
 OpenBabel02272408253D

 42 44  0  0  0  0  0  0  0  0999 V2000
    8.7780    2.5480    0.0000 F   0  0  0  0  0  0  0  0  0  0  0  0
    7.5530    1.6820    0.0000 C   0  0  0  0  0  0  0  0  0  0  0  0
    6.6880    2.9070    0.0000 F   0  0  0  0  0  0  0  0  0  0  0  0
    8.4190    0.4570    0.0000 F   0  0  0  0  0  0  0  0  0  0  0  0
    6.3290    0.8160    0.0000 C   0  0  0  0  0  0  0  0  0  0  0  0
    5.1040   -0.0500    0.0000 C   0  0  0  0  0  0  0  0  0  0  0  0
    3.8790   -0.9150    0.0000 C   0  0  0  0  0  0  0  0  0  0  0  0
    2.6540   -1.7810    0.0000 C   0  0  0  0  0  0  0  0  0  0  0  0
    2.7910   -3.2750    0.0000 O   0  0  0  0  0  0  0  0  0  0  0  0
    1.2920   -1.1530    0.0000 N   0  0  0  0  0  0  0  0  0  0  0  0
    0.0670   -2.0190    0.0000 C   0  0  0  0  0  0  0  0  0  0  0  0
   -1.2960   -1.3910    0.0000 C   0  0  0  0  0  0  0  0  0  0  0  0
   -1.4330    0.1030    0.0000 C   0  0  0  0  0  0  0  0  0  0  0  0
   -0.2080    0.9680    0.0000 C   0  0  0  0  0  0  0  0  0  0  0  0
    1.1540    0.3400    0.0000 C   0  0  0  0  0  0  0  0  0  0  0  0
   -2.8800   -0.2920    0.0000 C   0  0  0  0  0  0  0  0  0  0  0  0
   -3.4120   -1.6950    0.0000 O   0  0  0  0  0  0  0  0  0  0  0  0
   -4.9100   -1.6230    0.0000 N   0  0  0  0  0  0  0  0  0  0  0  0
   -5.3040   -0.1760    0.0000 C   0  0  0  0  0  0  0  0  0  0  0  0
   -4.0500    0.6470    0.0000 N   0  0  0  0  0  0  0  0  0  0  0  0
   -6.7070    0.3560    0.0000 C   0  0  0  0  0  0  0  0  0  0  0  0
   -7.9620   -0.4670    0.0000 N   0  0  0  0  0  0  0  0  0  0  0  0
   -9.1310    0.4720    0.0000 C   0  0  0  0  0  0  0  0  0  0  0  0
   -8.6000    1.8750    0.0000 C   0  0  0  0  0  0  0  0  0  0  0  0
   -7.1020    1.8030    0.0000 S   0  0  0  0  0  0  0  0  0  0  0  0
    5.4630    2.0410    0.0000 H   0  0  0  0  0  0  0  0  0  0  0  0
    7.1940   -0.4090    0.0000 H   0  0  0  0  0  0  0  0  0  0  0  0
    5.9690   -1.2750    0.0000 H   0  0  0  0  0  0  0  0  0  0  0  0
    4.2380    1.1750    0.0000 H   0  0  0  0  0  0  0  0  0  0  0  0
    4.7440   -2.1400    0.0000 H   0  0  0  0  0  0  0  0  0  0  0  0
    3.3040    0.1550    0.0000 H   0  0  0  0  0  0  0  0  0  0  0  0
    1.1320   -3.0750    0.0000 H   0  0  0  0  0  0  0  0  0  0  0  0
   -0.7880   -3.2520    0.0000 H   0  0  0  0  0  0  0  0  0  0  0  0
   -1.6770   -2.8420    0.0000 H   0  0  0  0  0  0  0  0  0  0  0  0
   -2.4950   -1.5870    0.0000 H   0  0  0  0  0  0  0  0  0  0  0  0
   -2.0730    1.4590    0.0000 H   0  0  0  0  0  0  0  0  0  0  0  0
   -1.2730    2.0240    0.0000 H   0  0  0  0  0  0  0  0  0  0  0  0
    0.6470    2.2010    0.0000 H   0  0  0  0  0  0  0  0  0  0  0  0
    1.5360    1.7910    0.0000 H   0  0  0  0  0  0  0  0  0  0  0  0
    2.3680    0.3880    0.0000 H   0  0  0  0  0  0  0  0  0  0  0  0
  -10.5790    0.0770    0.0000 H   0  0  0  0  0  0  0  0  0  0  0  0
   -9.4220    3.1290    0.0000 H   0  0  0  0  0  0  0  0  0  0  0  0
  1  2  1  0  0  0  0
  2  3  1  0  0  0  0
  2  4  1  0  0  0  0
  2  5  1  0  0  0  0
  5  6  1  0  0  0  0
  5 26  1  0  0  0  0
  5 27  1  0  0  0  0
  6  7  1  0  0  0  0
  6 28  1  0  0  0  0
  6 29  1  0  0  0  0
  7  8  1  0  0  0  0
  7 30  1  0  0  0  0
  7 31  1  0  0  0  0
  8  9  2  0  0  0  0
  8 10  1  0  0  0  0
 10 11  1  0  0  0  0
 10 15  1  0  0  0  0
 11 12  1  0  0  0  0
 11 32  1  0  0  0  0
 11 33  1  0  0  0  0
 12 13  1  0  0  0  0
 12 34  1  0  0  0  0
 12 35  1  0  0  0  0
 13 14  1  0  0  0  0
 13 16  1  0  0  0  0
 13 36  1  0  0  0  0
 14 15  1  0  0  0  0
 14 37  1  0  0  0  0
 14 38  1  0  0  0  0
 15 39  1  0  0  0  0
 15 40  1  0  0  0  0
 16 17  1  0  0  0  0
 16 20  2  0  0  0  0
 17 18  1  0  0  0  0
 18 19  2  0  0  0  0
 19 20  1  0  0  0  0
 19 21  1  0  0  0  0
 21 22  2  0  0  0  0
 21 25  1  0  0  0  0
 22 23  1  0  0  0  0
 23 24  2  0  0  0  0
 23 41  1  0  0  0  0
 24 25  1  0  0  0  0
 24 42  1  0  0  0  0
M  END
$$$$
