2D_structures\o62_MMV1582382_2D.pdb
 OpenBabel02272408253D

 44 46  0  0  1  0  0  0  0  0999 V2000
   -0.6350   -1.6790    0.0000 S   0  0  0  0  0  0  0  0  0  0  0  0
    0.8400   -1.4040    0.0000 C   0  0  0  0  0  0  0  0  0  0  0  0
    1.9290   -2.4350    0.0000 C   0  0  0  0  0  0  0  0  0  0  0  0
    3.2470   -1.7170    0.0000 N   0  0  0  0  0  0  0  0  0  0  0  0
    4.7210   -1.4420    0.0000 C   0  0  0  0  0  0  0  0  0  0  0  0
    5.9580   -2.2900    0.0000 O   0  0  0  0  0  0  0  0  0  0  0  0
    4.4460    0.0320    0.0000 C   0  0  1  0  0  0  0  0  0  0  0  0
    2.9720   -0.2430    0.0000 C   0  0  1  0  0  0  0  0  0  0  0  0
    1.4840   -0.0490    0.0000 C   0  0  0  0  0  0  0  0  0  0  0  0
    4.1710    1.5070    0.0000 C   0  0  1  0  0  0  0  0  0  0  0  0
    5.6450    1.7820    0.0000 O   0  0  0  0  0  0  0  0  0  0  0  0
    3.8960    2.9810    0.0000 C   0  0  0  0  0  0  0  0  0  0  0  0
    1.7350   -3.9220    0.0000 C   0  0  0  0  0  0  0  0  0  0  0  0
    2.9270   -4.8340    0.0000 O   0  0  0  0  0  0  0  0  0  0  0  0
    0.3500   -4.4980    0.0000 O   0  0  0  0  0  0  0  0  0  0  0  0
   -1.6100   -0.5390    0.0000 C   0  0  1  0  0  0  0  0  0  0  0  0
   -2.3270    0.7780    0.0000 C   0  0  0  0  0  0  0  0  0  0  0  0
   -3.8020    0.5030    0.0000 N   0  0  0  0  0  0  0  0  0  0  0  0
   -4.8910    1.5340    0.0000 C   0  0  0  0  0  0  0  0  0  0  0  0
   -4.5430    2.9930    0.0000 N   0  0  0  0  0  0  0  0  0  0  0  0
   -6.3290    1.1060    0.0000 C   0  0  0  0  0  0  0  0  0  0  0  0
   -3.9960   -0.9850    0.0000 C   0  0  0  0  0  0  0  0  0  0  0  0
   -2.6410   -1.6290    0.0000 C   0  0  0  0  0  0  0  0  0  0  0  0
    5.9210    0.3080    0.0000 H   0  0  0  0  0  0  0  0  0  0  0  0
    2.8250    0.7300    0.0000 H   0  0  0  0  0  0  0  0  0  0  0  0
    1.6520    1.4420    0.0000 H   0  0  0  0  0  0  0  0  0  0  0  0
    0.3960    0.4920    0.0000 H   0  0  0  0  0  0  0  0  0  0  0  0
    3.1880    1.5660    0.0000 H   0  0  0  0  0  0  0  0  0  0  0  0
    6.3130    3.1250    0.0000 H   0  0  0  0  0  0  0  0  0  0  0  0
    3.6200    4.4560    0.0000 H   0  0  0  0  0  0  0  0  0  0  0  0
    5.3260    3.4340    0.0000 H   0  0  0  0  0  0  0  0  0  0  0  0
    2.4210    2.7060    0.0000 H   0  0  0  0  0  0  0  0  0  0  0  0
    0.1560   -5.9850    0.0000 H   0  0  0  0  0  0  0  0  0  0  0  0
   -0.7010    0.2670    0.0000 H   0  0  0  0  0  0  0  0  0  0  0  0
   -0.9420    1.3540    0.0000 H   0  0  0  0  0  0  0  0  0  0  0  0
   -2.7550    2.2160    0.0000 H   0  0  0  0  0  0  0  0  0  0  0  0
   -5.6320    4.0240    0.0000 H   0  0  0  0  0  0  0  0  0  0  0  0
   -7.7670    0.6780    0.0000 H   0  0  0  0  0  0  0  0  0  0  0  0
   -6.7570    2.5440    0.0000 H   0  0  0  0  0  0  0  0  0  0  0  0
   -6.1050   -0.2250    0.0000 H   0  0  0  0  0  0  0  0  0  0  0  0
   -5.3370   -0.8340    0.0000 H   0  0  0  0  0  0  0  0  0  0  0  0
   -4.4950   -2.3990    0.0000 H   0  0  0  0  0  0  0  0  0  0  0  0
   -3.4230   -2.9090    0.0000 H   0  0  0  0  0  0  0  0  0  0  0  0
   -1.4500   -2.5400    0.0000 H   0  0  0  0  0  0  0  0  0  0  0  0
  1  2  1  0  0  0  0
  1 16  1  0  0  0  0
  2  3  2  0  0  0  0
  2  9  1  0  0  0  0
  3  4  1  0  0  0  0
  3 13  1  0  0  0  0
  4  5  1  0  0  0  0
  4  8  1  0  0  0  0
  5  6  2  0  0  0  0
  5  7  1  0  0  0  0
  7  8  1  0  0  0  0
  7 10  1  0  0  0  0
  7 24  1  6  0  0  0
  8  9  1  0  0  0  0
  8 25  1  1  0  0  0
  9 26  1  0  0  0  0
  9 27  1  0  0  0  0
 10 11  1  0  0  0  0
 10 12  1  0  0  0  0
 10 28  1  1  0  0  0
 11 29  1  0  0  0  0
 12 30  1  0  0  0  0
 12 31  1  0  0  0  0
 12 32  1  0  0  0  0
 13 14  2  0  0  0  0
 13 15  1  0  0  0  0
 15 33  1  0  0  0  0
 16 17  1  0  0  0  0
 16 23  1  0  0  0  0
 16 34  1  1  0  0  0
 17 18  1  0  0  0  0
 17 35  1  0  0  0  0
 17 36  1  0  0  0  0
 18 19  1  0  0  0  0
 18 22  1  0  0  0  0
 19 20  2  0  0  0  0
 19 21  1  0  0  0  0
 20 37  1  0  0  0  0
 21 38  1  0  0  0  0
 21 39  1  0  0  0  0
 21 40  1  0  0  0  0
 22 23  1  0  0  0  0
 22 41  1  0  0  0  0
 22 42  1  0  0  0  0
 23 43  1  0  0  0  0
 23 44  1  0  0  0  0
M  END
$$$$
