2D_structures\o64_MMV1581557_2D.pdb
 OpenBabel02272408253D

 53 55  0  0  1  0  0  0  0  0999 V2000
    0.3210    3.4670    0.0000 O   0  0  0  0  0  0  0  0  0  0  0  0
    0.7860    2.0410    0.0000 C   0  0  0  0  0  0  0  0  0  0  0  0
   -0.0290    1.4900    0.0000 O   0  0  0  0  0  0  0  0  0  0  0  0
    2.2530    1.7310    0.0000 C   0  0  1  0  0  0  0  0  0  0  0  0
    3.7210    1.4200    0.0000 C   0  0  0  0  0  0  0  0  0  0  0  0
    5.1880    1.1100    0.0000 C   0  0  0  0  0  0  0  0  0  0  0  0
    5.6530   -0.3170    0.0000 C   0  0  0  0  0  0  0  0  0  0  0  0
    7.1210   -0.6270    0.0000 C   0  0  0  0  0  0  0  0  0  0  0  0
    8.1230    0.4880    0.0000 C   0  0  0  0  0  0  0  0  0  0  0  0
    7.6590    1.9150    0.0000 C   0  0  0  0  0  0  0  0  0  0  0  0
    6.1910    2.2250    0.0000 C   0  0  0  0  0  0  0  0  0  0  0  0
    1.9430    0.2630    0.0000 N   0  0  0  0  0  0  0  0  0  0  0  0
    0.5170   -0.2020    0.0000 C   0  0  0  0  0  0  0  0  0  0  0  0
   -0.2970    0.5290    0.0000 O   0  0  0  0  0  0  0  0  0  0  0  0
    0.2060   -1.6690    0.0000 C   0  0  1  0  0  0  0  0  0  0  0  0
   -0.1040   -3.1370    0.0000 C   0  0  0  0  0  0  0  0  0  0  0  0
   -0.4150   -4.6040    0.0000 C   0  0  0  0  0  0  0  0  0  0  0  0
   -0.7250   -6.0720    0.0000 S   0  0  0  0  0  0  0  0  0  0  0  0
   -1.2610   -1.3590    0.0000 N   0  0  0  0  0  0  0  0  0  0  0  0
   -1.7260    0.0670    0.0000 C   0  0  0  0  0  0  0  0  0  0  0  0
   -1.0930    1.2600    0.0000 O   0  0  0  0  0  0  0  0  0  0  0  0
   -3.1940    0.3780    0.0000 C   0  0  0  0  0  0  0  0  0  0  0  0
   -4.3070   -0.6270    0.0000 C   0  0  0  0  0  0  0  0  0  0  0  0
   -5.6070    0.1220    0.0000 C   0  0  0  0  0  0  0  0  0  0  0  0
   -7.0330   -0.3430    0.0000 C   0  0  0  0  0  0  0  0  0  0  0  0
   -8.1490    0.6600    0.0000 C   0  0  0  0  0  0  0  0  0  0  0  0
   -7.8380    2.1270    0.0000 C   0  0  0  0  0  0  0  0  0  0  0  0
   -6.4120    2.5920    0.0000 C   0  0  0  0  0  0  0  0  0  0  0  0
   -5.2970    1.5890    0.0000 C   0  0  0  0  0  0  0  0  0  0  0  0
   -3.8050    1.7480    0.0000 N   0  0  0  0  0  0  0  0  0  0  0  0
   -1.1460    3.7780    0.0000 H   0  0  0  0  0  0  0  0  0  0  0  0
    2.5640    3.1980    0.0000 H   0  0  0  0  0  0  0  0  0  0  0  0
    3.5920   -0.0740    0.0000 H   0  0  0  0  0  0  0  0  0  0  0  0
    4.0310    2.8880    0.0000 H   0  0  0  0  0  0  0  0  0  0  0  0
    4.6510   -1.4320    0.0000 H   0  0  0  0  0  0  0  0  0  0  0  0
    7.5860   -2.0530    0.0000 H   0  0  0  0  0  0  0  0  0  0  0  0
    9.5910    0.1780    0.0000 H   0  0  0  0  0  0  0  0  0  0  0  0
    8.6610    3.0300    0.0000 H   0  0  0  0  0  0  0  0  0  0  0  0
    5.7260    3.6510    0.0000 H   0  0  0  0  0  0  0  0  0  0  0  0
    2.9280   -0.8680    0.0000 H   0  0  0  0  0  0  0  0  0  0  0  0
    1.6740   -1.9800    0.0000 H   0  0  0  0  0  0  0  0  0  0  0  0
    1.3630   -3.4470    0.0000 H   0  0  0  0  0  0  0  0  0  0  0  0
   -1.5990   -3.0080    0.0000 H   0  0  0  0  0  0  0  0  0  0  0  0
   -1.8820   -4.2940    0.0000 H   0  0  0  0  0  0  0  0  0  0  0  0
    1.0530   -4.9150    0.0000 H   0  0  0  0  0  0  0  0  0  0  0  0
    0.3900   -7.0750    0.0000 H   0  0  0  0  0  0  0  0  0  0  0  0
   -2.3920   -2.3440    0.0000 H   0  0  0  0  0  0  0  0  0  0  0  0
   -4.1490   -2.1190    0.0000 H   0  0  0  0  0  0  0  0  0  0  0  0
   -7.3440   -1.8100    0.0000 H   0  0  0  0  0  0  0  0  0  0  0  0
   -9.5750    0.1950    0.0000 H   0  0  0  0  0  0  0  0  0  0  0  0
   -8.9540    3.1300    0.0000 H   0  0  0  0  0  0  0  0  0  0  0  0
   -6.1020    4.0600    0.0000 H   0  0  0  0  0  0  0  0  0  0  0  0
   -3.0560    3.0470    0.0000 H   0  0  0  0  0  0  0  0  0  0  0  0
  1  2  1  0  0  0  0
  1 31  1  0  0  0  0
  2  3  2  0  0  0  0
  2  4  1  0  0  0  0
  4  5  1  0  0  0  0
  4 12  1  0  0  0  0
  4 32  1  6  0  0  0
  5  6  1  0  0  0  0
  5 33  1  0  0  0  0
  5 34  1  0  0  0  0
  6  7  2  0  0  0  0
  6 11  1  0  0  0  0
  7  8  1  0  0  0  0
  7 35  1  0  0  0  0
  8  9  2  0  0  0  0
  8 36  1  0  0  0  0
  9 10  1  0  0  0  0
  9 37  1  0  0  0  0
 10 11  2  0  0  0  0
 10 38  1  0  0  0  0
 11 39  1  0  0  0  0
 12 13  1  0  0  0  0
 12 40  1  0  0  0  0
 13 14  2  0  0  0  0
 13 15  1  0  0  0  0
 15 16  1  0  0  0  0
 15 19  1  0  0  0  0
 15 41  1  6  0  0  0
 16 17  1  0  0  0  0
 16 42  1  0  0  0  0
 16 43  1  0  0  0  0
 17 18  1  0  0  0  0
 17 44  1  0  0  0  0
 17 45  1  0  0  0  0
 18 46  1  0  0  0  0
 19 20  1  0  0  0  0
 19 47  1  0  0  0  0
 20 21  2  0  0  0  0
 20 22  1  0  0  0  0
 22 23  2  0  0  0  0
 22 30  1  0  0  0  0
 23 24  1  0  0  0  0
 23 48  1  0  0  0  0
 24 25  2  0  0  0  0
 24 29  1  0  0  0  0
 25 26  1  0  0  0  0
 25 49  1  0  0  0  0
 26 27  2  0  0  0  0
 26 50  1  0  0  0  0
 27 28  1  0  0  0  0
 27 51  1  0  0  0  0
 28 29  2  0  0  0  0
 28 52  1  0  0  0  0
 29 30  1  0  0  0  0
 30 53  1  0  0  0  0
M  END
$$$$
