2D_structures\o68_MMV1580844_2D.pdb
 OpenBabel02272408253D

 52 54  0  0  1  0  0  0  0  0999 V2000
   -4.4280   -3.2130    0.0000 C   0  0  0  0  0  0  0  0  0  0  0  0
   -4.9200   -1.7950    0.0000 C   0  0  0  0  0  0  0  0  0  0  0  0
   -5.4120   -0.3780    0.0000 C   0  0  0  0  0  0  0  0  0  0  0  0
   -6.8850   -0.0960    0.0000 N   0  0  0  0  0  4  0  0  0  0  0  0
   -7.3770    1.3210    0.0000 C   0  0  0  0  0  0  0  0  0  0  0  0
   -8.8500    1.6040    0.0000 N   0  0  0  0  0  0  0  0  0  0  0  0
   -6.3950    2.4560    0.0000 N   0  0  0  0  0  0  0  0  0  0  0  0
   -4.9220    2.1730    0.0000 C   0  0  0  0  0  0  0  0  0  0  0  0
   -3.9410    3.3080    0.0000 N   0  0  0  0  0  0  0  0  0  0  0  0
   -4.4300    0.7560    0.0000 C   0  0  0  0  0  0  0  0  0  0  0  0
   -2.9570    0.4730    0.0000 C   0  0  0  0  0  0  0  0  0  0  0  0
   -1.4840    0.1910    0.0000 C   0  0  0  0  0  0  0  0  0  0  0  0
   -0.0110   -0.0920    0.0000 C   0  0  1  0  0  0  0  0  0  0  0  0
   -0.2940   -1.5650    0.0000 C   0  0  0  0  0  0  0  0  0  0  0  0
    1.4620   -0.3750    0.0000 C   0  0  0  0  0  0  0  0  0  0  0  0
    1.9540   -1.7920    0.0000 C   0  0  0  0  0  0  0  0  0  0  0  0
    3.4270   -2.0740    0.0000 C   0  0  0  0  0  0  0  0  0  0  0  0
    3.9190   -3.4910    0.0000 O   0  0  0  0  0  0  0  0  0  0  0  0
    5.3920   -3.7740    0.0000 C   0  0  0  0  0  0  0  0  0  0  0  0
    4.4080   -0.9400    0.0000 C   0  0  0  0  0  0  0  0  0  0  0  0
    3.9170    0.4770    0.0000 C   0  0  0  0  0  0  0  0  0  0  0  0
    2.4430    0.7600    0.0000 C   0  0  0  0  0  0  0  0  0  0  0  0
    4.8980    1.6120    0.0000 C   0  0  0  0  0  0  0  0  0  0  0  0
    6.3710    1.3290    0.0000 C   0  0  0  0  0  0  0  0  0  0  0  0
    7.3520    2.4630    0.0000 C   0  0  0  0  0  0  0  0  0  0  0  0
    6.8610    3.8800    0.0000 N   0  0  0  0  0  0  0  0  0  0  0  0
    5.3880    4.1630    0.0000 C   0  0  0  0  0  0  0  0  0  0  0  0
    4.4060    3.0290    0.0000 C   0  0  0  0  0  0  0  0  0  0  0  0
   -3.9360   -4.6300    0.0000 H   0  0  0  0  0  0  0  0  0  0  0  0
   -3.0110   -2.7210    0.0000 H   0  0  0  0  0  0  0  0  0  0  0  0
   -5.8450   -3.7040    0.0000 H   0  0  0  0  0  0  0  0  0  0  0  0
   -6.3370   -2.2870    0.0000 H   0  0  0  0  0  0  0  0  0  0  0  0
   -3.5030   -1.3040    0.0000 H   0  0  0  0  0  0  0  0  0  0  0  0
   -9.3420    3.0210    0.0000 H   0  0  0  0  0  0  0  0  0  0  0  0
   -9.8310    0.4700    0.0000 H   0  0  0  0  0  0  0  0  0  0  0  0
   -2.4680    3.0250    0.0000 H   0  0  0  0  0  0  0  0  0  0  0  0
   -4.4330    4.7250    0.0000 H   0  0  0  0  0  0  0  0  0  0  0  0
    0.2720    1.3810    0.0000 H   0  0  0  0  0  0  0  0  0  0  0  0
   -0.5760   -3.0380    0.0000 H   0  0  0  0  0  0  0  0  0  0  0  0
   -1.7670   -1.2820    0.0000 H   0  0  0  0  0  0  0  0  0  0  0  0
    0.5100   -1.9370    0.0000 H   0  0  0  0  0  0  0  0  0  0  0  0
    1.3740   -2.4620    0.0000 H   0  0  0  0  0  0  0  0  0  0  0  0
    6.8650   -4.0570    0.0000 H   0  0  0  0  0  0  0  0  0  0  0  0
    5.1090   -5.2470    0.0000 H   0  0  0  0  0  0  0  0  0  0  0  0
    5.6750   -2.3010    0.0000 H   0  0  0  0  0  0  0  0  0  0  0  0
    5.8820   -1.2230    0.0000 H   0  0  0  0  0  0  0  0  0  0  0  0
    1.9520    2.1770    0.0000 H   0  0  0  0  0  0  0  0  0  0  0  0
    6.8630   -0.0880    0.0000 H   0  0  0  0  0  0  0  0  0  0  0  0
    8.8260    2.1810    0.0000 H   0  0  0  0  0  0  0  0  0  0  0  0
    4.8960    5.5800    0.0000 H   0  0  0  0  0  0  0  0  0  0  0  0
    2.9330    3.3110    0.0000 H   0  0  0  0  0  0  0  0  0  0  0  0
   -6.7176    3.3861    0.0000 H   0  0  0  0  0  0  0  0  0  0  0  0
  1  2  1  0  0  0  0
  1 29  1  0  0  0  0
  1 30  1  0  0  0  0
  1 31  1  0  0  0  0
  2  3  1  0  0  0  0
  2 32  1  0  0  0  0
  2 33  1  0  0  0  0
  3  4  2  0  0  0  0
  3 10  1  0  0  0  0
  4  5  2  0  0  0  0
  5  6  1  0  0  0  0
  5  7  1  0  0  0  0
  6 34  1  0  0  0  0
  6 35  1  0  0  0  0
  7  8  1  0  0  0  0
  7 52  1  0  0  0  0
  8  9  1  0  0  0  0
  8 10  2  0  0  0  0
  9 36  1  0  0  0  0
  9 37  1  0  0  0  0
 10 11  1  0  0  0  0
 11 12  3  0  0  0  0
 12 13  1  0  0  0  0
 13 14  1  0  0  0  0
 13 15  1  0  0  0  0
 13 38  1  1  0  0  0
 14 39  1  0  0  0  0
 14 40  1  0  0  0  0
 14 41  1  0  0  0  0
 15 16  2  0  0  0  0
 15 22  1  0  0  0  0
 16 17  1  0  0  0  0
 16 42  1  0  0  0  0
 17 18  1  0  0  0  0
 17 20  2  0  0  0  0
 18 19  1  0  0  0  0
 19 43  1  0  0  0  0
 19 44  1  0  0  0  0
 19 45  1  0  0  0  0
 20 21  1  0  0  0  0
 20 46  1  0  0  0  0
 21 22  2  0  0  0  0
 21 23  1  0  0  0  0
 22 47  1  0  0  0  0
 23 24  2  0  0  0  0
 23 28  1  0  0  0  0
 24 25  1  0  0  0  0
 24 48  1  0  0  0  0
 25 26  2  0  0  0  0
 25 49  1  0  0  0  0
 26 27  1  0  0  0  0
 27 28  2  0  0  0  0
 27 50  1  0  0  0  0
 28 51  1  0  0  0  0
M  END
$$$$
