2D_structures\o69_MMV1579788_2D.pdb
 OpenBabel02272408253D

 52 55  0  0  0  0  0  0  0  0999 V2000
   -1.5940   -2.4850    0.0000 C   0  0  0  0  0  0  0  0  0  0  0  0
   -1.7970   -0.9990    0.0000 N   0  0  0  0  0  0  0  0  0  0  0  0
   -3.1860   -0.4320    0.0000 C   0  0  0  0  0  0  0  0  0  0  0  0
   -4.5750    0.1350    0.0000 C   0  0  0  0  0  0  0  0  0  0  0  0
   -4.9320    1.5920    0.0000 O   0  0  0  0  0  0  0  0  0  0  0  0
   -6.4280    1.7020    0.0000 C   0  0  0  0  0  0  0  0  0  0  0  0
   -7.3470    2.8880    0.0000 C   0  0  0  0  0  0  0  0  0  0  0  0
   -8.8330    2.6850    0.0000 C   0  0  0  0  0  0  0  0  0  0  0  0
   -9.4000    1.2960    0.0000 C   0  0  0  0  0  0  0  0  0  0  0  0
   -8.4810    0.1110    0.0000 C   0  0  0  0  0  0  0  0  0  0  0  0
   -6.9950    0.3140    0.0000 C   0  0  0  0  0  0  0  0  0  0  0  0
   -5.8500   -0.6550    0.0000 C   0  0  0  0  0  0  0  0  0  0  0  0
   -5.9600   -2.1510    0.0000 C   0  0  0  0  0  0  0  0  0  0  0  0
   -0.6120   -0.0800    0.0000 C   0  0  0  0  0  0  0  0  0  0  0  0
   -0.8150    1.4060    0.0000 O   0  0  0  0  0  0  0  0  0  0  0  0
    0.7770   -0.6470    0.0000 C   0  0  0  0  0  0  0  0  0  0  0  0
    1.9620    0.2720    0.0000 C   0  0  0  0  0  0  0  0  0  0  0  0
    3.3510   -0.2950    0.0000 C   0  0  0  0  0  0  0  0  0  0  0  0
    3.5540   -1.7810    0.0000 C   0  0  0  0  0  0  0  0  0  0  0  0
    4.9430   -2.3480    0.0000 N   0  0  0  0  0  0  0  0  0  0  0  0
    6.1280   -1.4290    0.0000 C   0  0  0  0  0  0  0  0  0  0  0  0
    7.6050   -1.6950    0.0000 N   0  0  0  0  0  0  0  0  0  0  0  0
    8.3140   -0.3740    0.0000 C   0  0  0  0  0  0  0  0  0  0  0  0
    9.8140   -0.3530    0.0000 O   0  0  0  0  0  0  0  0  0  0  0  0
    7.2760    0.7090    0.0000 C   0  0  0  0  0  0  0  0  0  0  0  0
    8.4610    1.6280    0.0000 C   0  0  0  0  0  0  0  0  0  0  0  0
    6.4860    1.9840    0.0000 C   0  0  0  0  0  0  0  0  0  0  0  0
    5.9250    0.0570    0.0000 C   0  0  0  0  0  0  0  0  0  0  0  0
    4.5370    0.6240    0.0000 C   0  0  0  0  0  0  0  0  0  0  0  0
   -0.1080   -2.2820    0.0000 H   0  0  0  0  0  0  0  0  0  0  0  0
   -3.0800   -2.6880    0.0000 H   0  0  0  0  0  0  0  0  0  0  0  0
   -1.3910   -3.9710    0.0000 H   0  0  0  0  0  0  0  0  0  0  0  0
   -2.6190    0.9570    0.0000 H   0  0  0  0  0  0  0  0  0  0  0  0
   -3.5800   -1.8790    0.0000 H   0  0  0  0  0  0  0  0  0  0  0  0
   -6.7800    4.2770    0.0000 H   0  0  0  0  0  0  0  0  0  0  0  0
   -9.7520    3.8700    0.0000 H   0  0  0  0  0  0  0  0  0  0  0  0
  -10.8860    1.0930    0.0000 H   0  0  0  0  0  0  0  0  0  0  0  0
   -9.0480   -1.2780    0.0000 H   0  0  0  0  0  0  0  0  0  0  0  0
   -7.4560   -2.0400    0.0000 H   0  0  0  0  0  0  0  0  0  0  0  0
   -4.4880   -2.4420    0.0000 H   0  0  0  0  0  0  0  0  0  0  0  0
   -6.0700   -3.6470    0.0000 H   0  0  0  0  0  0  0  0  0  0  0  0
    0.9800   -2.1330    0.0000 H   0  0  0  0  0  0  0  0  0  0  0  0
    1.7590    1.7580    0.0000 H   0  0  0  0  0  0  0  0  0  0  0  0
    2.3690   -2.7000    0.0000 H   0  0  0  0  0  0  0  0  0  0  0  0
    8.2570   -3.0460    0.0000 H   0  0  0  0  0  0  0  0  0  0  0  0
    8.0530    2.3130    0.0000 H   0  0  0  0  0  0  0  0  0  0  0  0
    9.5180    0.5640    0.0000 H   0  0  0  0  0  0  0  0  0  0  0  0
    9.6470    2.5470    0.0000 H   0  0  0  0  0  0  0  0  0  0  0  0
    7.1070    2.4840    0.0000 H   0  0  0  0  0  0  0  0  0  0  0  0
    5.2110    1.1940    0.0000 H   0  0  0  0  0  0  0  0  0  0  0  0
    5.6960    3.2590    0.0000 H   0  0  0  0  0  0  0  0  0  0  0  0
    4.3330    2.1100    0.0000 H   0  0  0  0  0  0  0  0  0  0  0  0
  1  2  1  0  0  0  0
  1 30  1  0  0  0  0
  1 31  1  0  0  0  0
  1 32  1  0  0  0  0
  2  3  1  0  0  0  0
  2 14  1  0  0  0  0
  3  4  1  0  0  0  0
  3 33  1  0  0  0  0
  3 34  1  0  0  0  0
  4  5  1  0  0  0  0
  4 12  2  0  0  0  0
  5  6  1  0  0  0  0
  6  7  2  0  0  0  0
  6 11  1  0  0  0  0
  7  8  1  0  0  0  0
  7 35  1  0  0  0  0
  8  9  2  0  0  0  0
  8 36  1  0  0  0  0
  9 10  1  0  0  0  0
  9 37  1  0  0  0  0
 10 11  2  0  0  0  0
 10 38  1  0  0  0  0
 11 12  1  0  0  0  0
 12 13  1  0  0  0  0
 13 39  1  0  0  0  0
 13 40  1  0  0  0  0
 13 41  1  0  0  0  0
 14 15  2  0  0  0  0
 14 16  1  0  0  0  0
 16 17  2  0  0  0  0
 16 42  1  0  0  0  0
 17 18  1  0  0  0  0
 17 43  1  0  0  0  0
 18 19  2  0  0  0  0
 18 29  1  0  0  0  0
 19 20  1  0  0  0  0
 19 44  1  0  0  0  0
 20 21  2  0  0  0  0
 21 22  1  0  0  0  0
 21 28  1  0  0  0  0
 22 23  1  0  0  0  0
 22 45  1  0  0  0  0
 23 24  2  0  0  0  0
 23 25  1  0  0  0  0
 25 26  1  0  0  0  0
 25 27  1  0  0  0  0
 25 28  1  0  0  0  0
 26 46  1  0  0  0  0
 26 47  1  0  0  0  0
 26 48  1  0  0  0  0
 27 49  1  0  0  0  0
 27 50  1  0  0  0  0
 27 51  1  0  0  0  0
 28 29  2  0  0  0  0
 29 52  1  0  0  0  0
M  END
$$$$
