2D_structures\o70_MMV1579785_2D.pdb
 OpenBabel02272408253D

 36 39  0  0  0  0  0  0  0  0999 V2000
   -0.5880   -3.4980    0.0000 F   0  0  0  0  0  0  0  0  0  0  0  0
    0.4550   -2.4200    0.0000 C   0  0  0  0  0  0  0  0  0  0  0  0
    1.9100   -2.7850    0.0000 C   0  0  0  0  0  0  0  0  0  0  0  0
    2.9540   -1.7070    0.0000 C   0  0  0  0  0  0  0  0  0  0  0  0
    4.4090   -2.0710    0.0000 O   0  0  0  0  0  0  0  0  0  0  0  0
    5.4520   -0.9930    0.0000 C   0  0  0  0  0  0  0  0  0  0  0  0
    5.0400    0.4490    0.0000 C   0  0  0  0  0  0  0  0  0  0  0  0
    6.0830    1.5270    0.0000 O   0  0  0  0  0  0  0  0  0  0  0  0
    3.5850    0.8130    0.0000 N   0  0  0  0  0  0  0  0  0  0  0  0
    3.1730    2.2560    0.0000 C   0  0  0  0  0  0  0  0  0  0  0  0
    2.7610    3.6980    0.0000 C   0  0  0  0  0  0  0  0  0  0  0  0
    2.3490    5.1400    0.0000 N   0  0  0  0  0  0  0  0  0  0  0  0
    2.5420   -0.2650    0.0000 C   0  0  0  0  0  0  0  0  0  0  0  0
    1.0870    0.1000    0.0000 C   0  0  0  0  0  0  0  0  0  0  0  0
    0.0430   -0.9780    0.0000 C   0  0  0  0  0  0  0  0  0  0  0  0
   -1.4120   -0.6140    0.0000 N   0  0  0  0  0  0  0  0  0  0  0  0
   -2.5620   -1.5770    0.0000 C   0  0  0  0  0  0  0  0  0  0  0  0
   -2.4590   -3.0730    0.0000 O   0  0  0  0  0  0  0  0  0  0  0  0
   -3.8330   -0.7800    0.0000 C   0  0  0  0  0  0  0  0  0  0  0  0
   -5.2750   -1.1920    0.0000 C   0  0  0  0  0  0  0  0  0  0  0  0
   -6.3530   -0.1490    0.0000 C   0  0  0  0  0  0  0  0  0  0  0  0
   -5.9890    1.3060    0.0000 C   0  0  0  0  0  0  0  0  0  0  0  0
   -4.5460    1.7180    0.0000 C   0  0  0  0  0  0  0  0  0  0  0  0
   -3.4690    0.6750    0.0000 C   0  0  0  0  0  0  0  0  0  0  0  0
   -1.9720    0.7780    0.0000 C   0  0  0  0  0  0  0  0  0  0  0  0
   -1.1760    2.0490    0.0000 O   0  0  0  0  0  0  0  0  0  0  0  0
    2.3220   -4.2270    0.0000 H   0  0  0  0  0  0  0  0  0  0  0  0
    6.8010   -0.3370    0.0000 H   0  0  0  0  0  0  0  0  0  0  0  0
    6.3320   -2.2080    0.0000 H   0  0  0  0  0  0  0  0  0  0  0  0
    1.7310    1.8440    0.0000 H   0  0  0  0  0  0  0  0  0  0  0  0
    4.6150    2.6680    0.0000 H   0  0  0  0  0  0  0  0  0  0  0  0
    0.6750    1.5420    0.0000 H   0  0  0  0  0  0  0  0  0  0  0  0
   -5.6400   -2.6470    0.0000 H   0  0  0  0  0  0  0  0  0  0  0  0
   -7.7960   -0.5610    0.0000 H   0  0  0  0  0  0  0  0  0  0  0  0
   -7.0670    2.3490    0.0000 H   0  0  0  0  0  0  0  0  0  0  0  0
   -4.1820    3.1730    0.0000 H   0  0  0  0  0  0  0  0  0  0  0  0
  1  2  1  0  0  0  0
  2  3  2  0  0  0  0
  2 15  1  0  0  0  0
  3  4  1  0  0  0  0
  3 27  1  0  0  0  0
  4  5  1  0  0  0  0
  4 13  2  0  0  0  0
  5  6  1  0  0  0  0
  6  7  1  0  0  0  0
  6 28  1  0  0  0  0
  6 29  1  0  0  0  0
  7  8  2  0  0  0  0
  7  9  1  0  0  0  0
  9 10  1  0  0  0  0
  9 13  1  0  0  0  0
 10 11  1  0  0  0  0
 10 30  1  0  0  0  0
 10 31  1  0  0  0  0
 11 12  3  0  0  0  0
 13 14  1  0  0  0  0
 14 15  2  0  0  0  0
 14 32  1  0  0  0  0
 15 16  1  0  0  0  0
 16 17  1  0  0  0  0
 16 25  1  0  0  0  0
 17 18  2  0  0  0  0
 17 19  1  0  0  0  0
 19 20  2  0  0  0  0
 19 24  1  0  0  0  0
 20 21  1  0  0  0  0
 20 33  1  0  0  0  0
 21 22  2  0  0  0  0
 21 34  1  0  0  0  0
 22 23  1  0  0  0  0
 22 35  1  0  0  0  0
 23 24  2  0  0  0  0
 23 36  1  0  0  0  0
 24 25  1  0  0  0  0
 25 26  2  0  0  0  0
M  END
$$$$
