2D_structures\o72_MMV1578898_2D.pdb
 OpenBabel02272408253D

 35 36  0  0  0  0  0  0  0  0999 V2000
    6.7590    0.3130    0.0000 C   0  0  0  0  0  0  0  0  0  0  0  0
    5.2670    0.4750    0.0000 C   0  0  0  0  0  0  0  0  0  0  0  0
    3.7760    0.6360    0.0000 O   0  0  0  0  0  0  0  0  0  0  0  0
    2.8910   -0.5750    0.0000 C   0  0  0  0  0  0  0  0  0  0  0  0
    3.4960   -1.9470    0.0000 O   0  0  0  0  0  0  0  0  0  0  0  0
    1.3990   -0.4130    0.0000 N   0  0  0  0  0  0  0  0  0  0  0  0
    0.5140   -1.6240    0.0000 C   0  0  0  0  0  0  0  0  0  0  0  0
   -0.9770   -1.4620    0.0000 C   0  0  0  0  0  0  0  0  0  0  0  0
   -1.5830   -0.0900    0.0000 N   0  0  0  0  0  0  0  0  0  0  0  0
   -0.6980    1.1210    0.0000 C   0  0  0  0  0  0  0  0  0  0  0  0
    0.7940    0.9590    0.0000 C   0  0  0  0  0  0  0  0  0  0  0  0
   -3.0740    0.0720    0.0000 C   0  0  0  0  0  0  0  0  0  0  0  0
   -3.6800    1.4440    0.0000 C   0  0  0  0  0  0  0  0  0  0  0  0
   -5.1710    1.6060    0.0000 C   0  0  0  0  0  0  0  0  0  0  0  0
   -6.0570    0.3950    0.0000 C   0  0  0  0  0  0  0  0  0  0  0  0
   -7.5480    0.5560    0.0000 Cl  0  0  0  0  0  0  0  0  0  0  0  0
   -5.4510   -0.9770    0.0000 C   0  0  0  0  0  0  0  0  0  0  0  0
   -3.9600   -1.1390    0.0000 C   0  0  0  0  0  0  0  0  0  0  0  0
    8.2500    0.1510    0.0000 H   0  0  0  0  0  0  0  0  0  0  0  0
    6.5970   -1.1780    0.0000 H   0  0  0  0  0  0  0  0  0  0  0  0
    6.9200    1.8040    0.0000 H   0  0  0  0  0  0  0  0  0  0  0  0
    5.1060   -1.0170    0.0000 H   0  0  0  0  0  0  0  0  0  0  0  0
    5.4290    1.9660    0.0000 H   0  0  0  0  0  0  0  0  0  0  0  0
    1.8600   -2.2860    0.0000 H   0  0  0  0  0  0  0  0  0  0  0  0
    0.0960   -3.0640    0.0000 H   0  0  0  0  0  0  0  0  0  0  0  0
   -0.8780   -2.9590    0.0000 H   0  0  0  0  0  0  0  0  0  0  0  0
   -2.4340   -1.8200    0.0000 H   0  0  0  0  0  0  0  0  0  0  0  0
   -2.0440    1.7830    0.0000 H   0  0  0  0  0  0  0  0  0  0  0  0
   -0.2800    2.5610    0.0000 H   0  0  0  0  0  0  0  0  0  0  0  0
    0.6940    2.4560    0.0000 H   0  0  0  0  0  0  0  0  0  0  0  0
    2.2500    1.3180    0.0000 H   0  0  0  0  0  0  0  0  0  0  0  0
   -2.7950    2.6550    0.0000 H   0  0  0  0  0  0  0  0  0  0  0  0
   -5.7770    2.9780    0.0000 H   0  0  0  0  0  0  0  0  0  0  0  0
   -6.3370   -2.1880    0.0000 H   0  0  0  0  0  0  0  0  0  0  0  0
   -3.3540   -2.5110    0.0000 H   0  0  0  0  0  0  0  0  0  0  0  0
  1  2  1  0  0  0  0
  1 19  1  0  0  0  0
  1 20  1  0  0  0  0
  1 21  1  0  0  0  0
  2  3  1  0  0  0  0
  2 22  1  0  0  0  0
  2 23  1  0  0  0  0
  3  4  1  0  0  0  0
  4  5  2  0  0  0  0
  4  6  1  0  0  0  0
  6  7  1  0  0  0  0
  6 11  1  0  0  0  0
  7  8  1  0  0  0  0
  7 24  1  0  0  0  0
  7 25  1  0  0  0  0
  8  9  1  0  0  0  0
  8 26  1  0  0  0  0
  8 27  1  0  0  0  0
  9 10  1  0  0  0  0
  9 12  1  0  0  0  0
 10 11  1  0  0  0  0
 10 28  1  0  0  0  0
 10 29  1  0  0  0  0
 11 30  1  0  0  0  0
 11 31  1  0  0  0  0
 12 13  2  0  0  0  0
 12 18  1  0  0  0  0
 13 14  1  0  0  0  0
 13 32  1  0  0  0  0
 14 15  2  0  0  0  0
 14 33  1  0  0  0  0
 15 16  1  0  0  0  0
 15 17  1  0  0  0  0
 17 18  2  0  0  0  0
 17 34  1  0  0  0  0
 18 35  1  0  0  0  0
M  END
$$$$
