2D_structures\o79_MMV1578566_2D.pdb
 OpenBabel02272408253D

 33 34  0  0  1  0  0  0  0  0999 V2000
    6.4050    0.5560    0.0000 N   0  0  0  0  0  0  0  0  0  0  0  0
    4.9460    0.2100    0.0000 C   0  0  0  0  0  0  0  0  0  0  0  0
    3.4860   -0.1370    0.0000 C   0  0  1  0  0  0  0  0  0  0  0  0
    3.2940    1.3510    0.0000 O   0  0  0  0  0  0  0  0  0  0  0  0
    1.8200    1.6280    0.0000 B   0  0  0  0  0  0  0  0  0  0  0  0
    1.1780    2.9830    0.0000 O   0  0  0  0  0  0  0  0  0  0  0  0
    1.1010    0.3110    0.0000 C   0  0  0  0  0  0  0  0  0  0  0  0
   -0.3580   -0.0350    0.0000 C   0  0  0  0  0  0  0  0  0  0  0  0
   -1.3880    1.0560    0.0000 O   0  0  0  0  0  0  0  0  0  0  0  0
   -2.8470    0.7090    0.0000 C   0  0  0  0  0  0  0  0  0  0  0  0
   -4.3070    0.3630    0.0000 C   0  0  0  0  0  0  0  0  0  0  0  0
   -5.7660    0.0160    0.0000 C   0  0  0  0  0  0  0  0  0  0  0  0
   -7.2260   -0.3300    0.0000 O   0  0  0  0  0  0  0  0  0  0  0  0
   -0.7880   -1.4720    0.0000 C   0  0  0  0  0  0  0  0  0  0  0  0
    0.2420   -2.5630    0.0000 C   0  0  0  0  0  0  0  0  0  0  0  0
    1.7010   -2.2160    0.0000 C   0  0  0  0  0  0  0  0  0  0  0  0
    2.1310   -0.7790    0.0000 C   0  0  0  0  0  0  0  0  0  0  0  0
    6.8350    1.9930    0.0000 H   0  0  0  0  0  0  0  0  0  0  0  0
    7.4350   -0.5350    0.0000 H   0  0  0  0  0  0  0  0  0  0  0  0
    5.2920   -1.2500    0.0000 H   0  0  0  0  0  0  0  0  0  0  0  0
    4.5990    1.6690    0.0000 H   0  0  0  0  0  0  0  0  0  0  0  0
    3.9840   -1.5520    0.0000 H   0  0  0  0  0  0  0  0  0  0  0  0
    2.0310    4.2170    0.0000 H   0  0  0  0  0  0  0  0  0  0  0  0
   -2.5010   -0.7500    0.0000 H   0  0  0  0  0  0  0  0  0  0  0  0
   -3.1940    2.1680    0.0000 H   0  0  0  0  0  0  0  0  0  0  0  0
   -4.6530    1.8220    0.0000 H   0  0  0  0  0  0  0  0  0  0  0  0
   -3.9600   -1.0970    0.0000 H   0  0  0  0  0  0  0  0  0  0  0  0
   -5.4200   -1.4430    0.0000 H   0  0  0  0  0  0  0  0  0  0  0  0
   -6.1130    1.4750    0.0000 H   0  0  0  0  0  0  0  0  0  0  0  0
   -8.2560    0.7600    0.0000 H   0  0  0  0  0  0  0  0  0  0  0  0
   -2.2470   -1.8190    0.0000 H   0  0  0  0  0  0  0  0  0  0  0  0
   -0.1880   -4.0000    0.0000 H   0  0  0  0  0  0  0  0  0  0  0  0
    2.7310   -3.3070    0.0000 H   0  0  0  0  0  0  0  0  0  0  0  0
  1  2  1  0  0  0  0
  1 18  1  0  0  0  0
  1 19  1  0  0  0  0
  2  3  1  0  0  0  0
  2 20  1  0  0  0  0
  2 21  1  0  0  0  0
  3  4  1  0  0  0  0
  3 17  1  0  0  0  0
  3 22  1  1  0  0  0
  4  5  1  0  0  0  0
  5  6  1  0  0  0  0
  5  7  1  0  0  0  0
  6 23  1  0  0  0  0
  7  8  2  0  0  0  0
  7 17  1  0  0  0  0
  8  9  1  0  0  0  0
  8 14  1  0  0  0  0
  9 10  1  0  0  0  0
 10 11  1  0  0  0  0
 10 24  1  0  0  0  0
 10 25  1  0  0  0  0
 11 12  1  0  0  0  0
 11 26  1  0  0  0  0
 11 27  1  0  0  0  0
 12 13  1  0  0  0  0
 12 28  1  0  0  0  0
 12 29  1  0  0  0  0
 13 30  1  0  0  0  0
 14 15  2  0  0  0  0
 14 31  1  0  0  0  0
 15 16  1  0  0  0  0
 15 32  1  0  0  0  0
 16 17  2  0  0  0  0
 16 33  1  0  0  0  0
M  END
$$$$
