2D_structures\o80_MMV1578563_2D.pdb
 OpenBabel02272408253D

 25 27  0  0  0  0  0  0  0  0999 V2000
   -5.9020    1.0790    0.0000 F   0  0  0  0  0  0  0  0  0  0  0  0
   -4.4330    0.7760    0.0000 C   0  0  0  0  0  0  0  0  0  0  0  0
   -3.4350    1.8960    0.0000 C   0  0  0  0  0  0  0  0  0  0  0  0
   -1.9660    1.5920    0.0000 C   0  0  0  0  0  0  0  0  0  0  0  0
   -1.4950    0.1680    0.0000 C   0  0  0  0  0  0  0  0  0  0  0  0
   -0.1210   -0.4340    0.0000 C   0  0  0  0  0  0  0  0  0  0  0  0
    1.1740    0.3230    0.0000 C   0  0  0  0  0  0  0  0  0  0  0  0
    2.4770   -0.4200    0.0000 C   0  0  0  0  0  0  0  0  0  0  0  0
    3.7720    0.3370    0.0000 C   0  0  0  0  0  0  0  0  0  0  0  0
    3.9200    1.8300    0.0000 N   0  0  0  0  0  0  0  0  0  0  0  0
    5.3860    2.1500    0.0000 N   0  0  0  0  0  0  0  0  0  0  0  0
    6.1430    0.8550    0.0000 N   0  0  0  0  0  0  0  0  0  0  0  0
    5.1450   -0.2650    0.0000 N   0  0  0  0  0  0  0  0  0  0  0  0
   -0.2700   -1.9270    0.0000 C   0  0  0  0  0  0  0  0  0  0  0  0
   -1.7350   -2.2470    0.0000 N   0  0  0  0  0  0  0  0  0  0  0  0
   -2.4920   -0.9520    0.0000 C   0  0  0  0  0  0  0  0  0  0  0  0
   -3.9610   -0.6480    0.0000 C   0  0  0  0  0  0  0  0  0  0  0  0
   -3.9070    3.3200    0.0000 H   0  0  0  0  0  0  0  0  0  0  0  0
   -0.9690    2.7120    0.0000 H   0  0  0  0  0  0  0  0  0  0  0  0
    1.1650    1.8230    0.0000 H   0  0  0  0  0  0  0  0  0  0  0  0
    2.4850   -1.9200    0.0000 H   0  0  0  0  0  0  0  0  0  0  0  0
    5.4650   -1.7310    0.0000 H   0  0  0  0  0  0  0  0  0  0  0  0
    0.8500   -2.9250    0.0000 H   0  0  0  0  0  0  0  0  0  0  0  0
   -2.3380   -3.6210    0.0000 H   0  0  0  0  0  0  0  0  0  0  0  0
   -4.9590   -1.7690    0.0000 H   0  0  0  0  0  0  0  0  0  0  0  0
  1  2  1  0  0  0  0
  2  3  2  0  0  0  0
  2 17  1  0  0  0  0
  3  4  1  0  0  0  0
  3 18  1  0  0  0  0
  4  5  2  0  0  0  0
  4 19  1  0  0  0  0
  5  6  1  0  0  0  0
  5 16  1  0  0  0  0
  6  7  1  0  0  0  0
  6 14  2  0  0  0  0
  7  8  2  0  0  0  0
  7 20  1  0  0  0  0
  8  9  1  0  0  0  0
  8 21  1  0  0  0  0
  9 10  2  0  0  0  0
  9 13  1  0  0  0  0
 10 11  1  0  0  0  0
 11 12  2  0  0  0  0
 12 13  1  0  0  0  0
 13 22  1  0  0  0  0
 14 15  1  0  0  0  0
 14 23  1  0  0  0  0
 15 16  1  0  0  0  0
 15 24  1  0  0  0  0
 16 17  2  0  0  0  0
 17 25  1  0  0  0  0
M  END
$$$$
