2D_structures\o9_MMV1613560_2D.pdb
 OpenBabel02272408253D

 28 29  0  0  1  0  0  0  0  0999 V2000
   -4.2780    0.6890    0.0000 N   0  0  0  0  0  0  0  0  0  0  0  0
   -2.8320    1.0880    0.0000 C   0  0  0  0  0  0  0  0  0  0  0  0
   -2.4540    2.5390    0.0000 O   0  0  0  0  0  0  0  0  0  0  0  0
   -1.7640    0.0350    0.0000 C   0  0  1  0  0  0  0  0  0  0  0  0
   -1.1200   -1.3200    0.0000 C   0  0  0  0  0  0  0  0  0  0  0  0
    0.3750   -1.4400    0.0000 C   0  0  0  0  0  0  0  0  0  0  0  0
    1.0860   -0.1080    0.0000 C   0  0  1  0  0  0  0  0  0  0  0  0
   -0.4140   -0.1450    0.0000 C   0  0  0  0  0  0  0  0  0  0  0  0
   -0.9120    1.2690    0.0000 N   0  0  0  0  0  0  0  0  0  0  0  0
    0.2790    2.1810    0.0000 C   0  0  0  0  0  0  0  0  0  0  0  0
    0.2420    3.6800    0.0000 O   0  0  0  0  0  0  0  0  0  0  0  0
    1.5140    1.3290    0.0000 N   0  0  0  0  0  0  0  0  0  0  0  0
    2.9290    1.8280    0.0000 O   0  0  0  0  0  0  0  0  0  0  0  0
    4.0680    0.8520    0.0000 S   0  0  0  0  0  0  0  0  0  0  0  0
    5.2070   -0.1240    0.0000 O   0  0  0  0  0  0  0  0  0  0  0  0
    3.0920   -0.2870    0.0000 O   0  0  0  0  0  0  0  0  0  0  0  0
    5.0440    1.9910    0.0000 O   0  0  0  0  0  0  0  0  0  0  0  0
   -5.3460    1.7420    0.0000 H   0  0  0  0  0  0  0  0  0  0  0  0
   -4.6560   -0.7630    0.0000 H   0  0  0  0  0  0  0  0  0  0  0  0
   -2.9860   -0.8350    0.0000 H   0  0  0  0  0  0  0  0  0  0  0  0
   -2.5660   -1.7190    0.0000 H   0  0  0  0  0  0  0  0  0  0  0  0
   -0.9780   -2.8140    0.0000 H   0  0  0  0  0  0  0  0  0  0  0  0
   -0.0020   -2.8920    0.0000 H   0  0  0  0  0  0  0  0  0  0  0  0
    1.6530   -2.2260    0.0000 H   0  0  0  0  0  0  0  0  0  0  0  0
    2.1360   -1.1800    0.0000 H   0  0  0  0  0  0  0  0  0  0  0  0
   -0.5050   -0.9370    0.0000 H   0  0  0  0  0  0  0  0  0  0  0  0
   -1.7450   -0.8360    0.0000 H   0  0  0  0  0  0  0  0  0  0  0  0
    4.9320   -1.5980    0.0000 H   0  0  0  0  0  0  0  0  0  0  0  0
  1  2  1  0  0  0  0
  1 18  1  0  0  0  0
  1 19  1  0  0  0  0
  2  3  2  0  0  0  0
  2  4  1  0  0  0  0
  4  5  1  0  0  0  0
  4  9  1  0  0  0  0
  4 20  1  1  0  0  0
  5  6  1  0  0  0  0
  5 21  1  0  0  0  0
  5 22  1  0  0  0  0
  6  7  1  0  0  0  0
  6 23  1  0  0  0  0
  6 24  1  0  0  0  0
  7  8  1  0  0  0  0
  7 12  1  0  0  0  0
  7 25  1  6  0  0  0
  8  9  1  0  0  0  0
  8 26  1  0  0  0  0
  8 27  1  0  0  0  0
  9 10  1  0  0  0  0
 10 11  2  0  0  0  0
 10 12  1  0  0  0  0
 12 13  1  0  0  0  0
 13 14  1  0  0  0  0
 14 15  1  0  0  0  0
 14 16  2  0  0  0  0
 14 17  2  0  0  0  0
 15 28  1  0  0  0  0
M  END
$$$$
