MODEL 1
REMARK VINA RESULT:      -5.4      0.000      0.000
REMARK  Name = ./3D_structures\o15_MMV374187_3D.pdb
REMARK  4 active torsions:
REMARK  status: ('A' for Active; 'I' for Inactive)
REMARK    1  A    between atoms: C1_1  and  O1_2
REMARK    2  A    between atoms: O1_2  and  C2_3
REMARK    3  A    between atoms: C5_6  and  N1_7
REMARK    4  A    between atoms: C6_8  and  C7_10
REMARK                            x       y       z     vdW  Elec       q    Type
REMARK                         _______ _______ _______ _____ _____    ______ ____
ROOT
ATOM      1  N1  UNL     1     157.972 156.191 165.902  0.00  0.00    +0.000 N 
ATOM      2  C6  UNL     1     156.790 156.683 166.495  0.00  0.00    +0.000 C 
ATOM      3  O2  UNL     1     155.698 156.467 165.917  0.00  0.00    +0.000 OA
ATOM      4  H6  UNL     1     158.865 156.414 166.452  0.00  0.00    +0.000 HD
ENDROOT
BRANCH   2   5
ATOM      5  C7  UNL     1     156.826 157.439 167.766  0.00  0.00    +0.000 A 
ATOM      6  C8  UNL     1     156.425 156.943 168.982  0.00  0.00    +0.000 A 
ATOM      7  C9  UNL     1     156.593 157.913 169.939  0.00  0.00    +0.000 A 
ATOM      8  C10 UNL     1     156.336 157.888 171.289  0.00  0.00    +0.000 A 
ATOM      9  C11 UNL     1     156.599 159.028 172.060  0.00  0.00    +0.000 A 
ATOM     10  C12 UNL     1     157.110 160.112 171.383  0.00  0.00    +0.000 A 
ATOM     11  C13 UNL     1     157.343 160.071 170.032  0.00  0.00    +0.000 A 
ATOM     12  N2  UNL     1     157.093 158.982 169.292  0.00  0.00    +0.000 N 
ATOM     13  N3  UNL     1     157.229 158.694 167.993  0.00  0.00    +0.000 NA
ENDBRANCH   2   5
BRANCH   1  17
ATOM     14  C2  UNL     1     158.419 153.738 162.469  0.00  0.00    +0.000 A 
ATOM     15  C3  UNL     1     157.975 155.029 162.341  0.00  0.00    +0.000 A 
ATOM     16  C4  UNL     1     157.809 155.882 163.444  0.00  0.00    +0.000 A 
ATOM     17  C5  UNL     1     158.083 155.459 164.701  0.00  0.00    +0.000 A 
ATOM     18  C14 UNL     1     158.536 154.139 164.835  0.00  0.00    +0.000 A 
ATOM     19  C15 UNL     1     158.696 153.310 163.749  0.00  0.00    +0.000 A 
BRANCH  14  21
ATOM     20  C1  UNL     1     158.009 151.596 161.425  0.00  0.00    +0.000 C 
ATOM     21  O1  UNL     1     158.585 152.890 161.375  0.00  0.00    +0.000 OA
ENDBRANCH  14  21
ENDBRANCH   1  17
TORSDOF 3
ENDMDL
MODEL 2
REMARK VINA RESULT:      -5.4      2.101      8.187
REMARK  Name = ./3D_structures\o15_MMV374187_3D.pdb
REMARK  4 active torsions:
REMARK  status: ('A' for Active; 'I' for Inactive)
REMARK    1  A    between atoms: C1_1  and  O1_2
REMARK    2  A    between atoms: O1_2  and  C2_3
REMARK    3  A    between atoms: C5_6  and  N1_7
REMARK    4  A    between atoms: C6_8  and  C7_10
REMARK                            x       y       z     vdW  Elec       q    Type
REMARK                         _______ _______ _______ _____ _____    ______ ____
ROOT
ATOM      1  N1  UNL     1     157.584 156.837 167.240  0.00  0.00    +0.000 N 
ATOM      2  C6  UNL     1     156.767 156.682 166.101  0.00  0.00    +0.000 C 
ATOM      3  O2  UNL     1     155.536 156.898 166.215  0.00  0.00    +0.000 OA
ATOM      4  H6  UNL     1     158.623 156.636 167.066  0.00  0.00    +0.000 HD
ENDROOT
BRANCH   2   5
ATOM      5  C7  UNL     1     157.335 156.274 164.798  0.00  0.00    +0.000 A 
ATOM      6  C8  UNL     1     157.532 154.973 164.403  0.00  0.00    +0.000 A 
ATOM      7  C9  UNL     1     158.074 154.965 163.142  0.00  0.00    +0.000 A 
ATOM      8  C10 UNL     1     158.442 153.914 162.337  0.00  0.00    +0.000 A 
ATOM      9  C11 UNL     1     158.981 154.174 161.070  0.00  0.00    +0.000 A 
ATOM     10  C12 UNL     1     159.103 155.501 160.725  0.00  0.00    +0.000 A 
ATOM     11  C13 UNL     1     158.716 156.504 161.578  0.00  0.00    +0.000 A 
ATOM     12  N2  UNL     1     158.199 156.257 162.789  0.00  0.00    +0.000 N 
ATOM     13  N3  UNL     1     157.757 157.036 163.783  0.00  0.00    +0.000 NA
ENDBRANCH   2   5
BRANCH   1  17
ATOM     14  C2  UNL     1     156.640 158.161 171.160  0.00  0.00    +0.000 A 
ATOM     15  C3  UNL     1     155.795 157.306 170.498  0.00  0.00    +0.000 A 
ATOM     16  C4  UNL     1     156.060 156.839 169.201  0.00  0.00    +0.000 A 
ATOM     17  C5  UNL     1     157.177 157.219 168.536  0.00  0.00    +0.000 A 
ATOM     18  C14 UNL     1     158.041 158.094 169.210  0.00  0.00    +0.000 A 
ATOM     19  C15 UNL     1     157.775 158.546 170.481  0.00  0.00    +0.000 A 
BRANCH  14  21
ATOM     20  C1  UNL     1     155.576 159.781 172.603  0.00  0.00    +0.000 C 
ATOM     21  O1  UNL     1     156.379 158.625 172.448  0.00  0.00    +0.000 OA
ENDBRANCH  14  21
ENDBRANCH   1  17
TORSDOF 3
ENDMDL
MODEL 3
REMARK VINA RESULT:      -5.2      7.580     10.487
REMARK  Name = ./3D_structures\o15_MMV374187_3D.pdb
REMARK  4 active torsions:
REMARK  status: ('A' for Active; 'I' for Inactive)
REMARK    1  A    between atoms: C1_1  and  O1_2
REMARK    2  A    between atoms: O1_2  and  C2_3
REMARK    3  A    between atoms: C5_6  and  N1_7
REMARK    4  A    between atoms: C6_8  and  C7_10
REMARK                            x       y       z     vdW  Elec       q    Type
REMARK                         _______ _______ _______ _____ _____    ______ ____
ROOT
ATOM      1  N1  UNL     1     151.475 162.620 167.112  0.00  0.00    +0.000 N 
ATOM      2  C6  UNL     1     151.903 161.591 166.248  0.00  0.00    +0.000 C 
ATOM      3  O2  UNL     1     151.514 161.612 165.055  0.00  0.00    +0.000 OA
ATOM      4  H6  UNL     1     151.848 162.534 168.114  0.00  0.00    +0.000 HD
ENDROOT
BRANCH   2   5
ATOM      5  C7  UNL     1     152.788 160.505 166.724  0.00  0.00    +0.000 A 
ATOM      6  C8  UNL     1     153.711 159.850 165.947  0.00  0.00    +0.000 A 
ATOM      7  C9  UNL     1     154.352 158.906 166.710  0.00  0.00    +0.000 A 
ATOM      8  C10 UNL     1     155.343 158.015 166.379  0.00  0.00    +0.000 A 
ATOM      9  C11 UNL     1     155.836 157.140 167.357  0.00  0.00    +0.000 A 
ATOM     10  C12 UNL     1     155.270 157.249 168.607  0.00  0.00    +0.000 A 
ATOM     11  C13 UNL     1     154.281 158.162 168.872  0.00  0.00    +0.000 A 
ATOM     12  N2  UNL     1     153.809 159.000 167.938  0.00  0.00    +0.000 N 
ATOM     13  N3  UNL     1     152.873 159.956 167.941  0.00  0.00    +0.000 NA
ENDBRANCH   2   5
BRANCH   1  17
ATOM     14  C2  UNL     1     148.719 165.749 166.329  0.00  0.00    +0.000 A 
ATOM     15  C3  UNL     1     149.978 165.786 165.784  0.00  0.00    +0.000 A 
ATOM     16  C4  UNL     1     150.927 164.777 166.012  0.00  0.00    +0.000 A 
ATOM     17  C5  UNL     1     150.638 163.709 166.793  0.00  0.00    +0.000 A 
ATOM     18  C14 UNL     1     149.353 163.670 167.352  0.00  0.00    +0.000 A 
ATOM     19  C15 UNL     1     148.428 164.662 167.123  0.00  0.00    +0.000 A 
BRANCH  14  21
ATOM     20  C1  UNL     1     146.445 166.371 165.799  0.00  0.00    +0.000 C 
ATOM     21  O1  UNL     1     147.775 166.749 166.104  0.00  0.00    +0.000 OA
ENDBRANCH  14  21
ENDBRANCH   1  17
TORSDOF 3
ENDMDL
MODEL 4
REMARK VINA RESULT:      -5.2      2.639      3.738
REMARK  Name = ./3D_structures\o15_MMV374187_3D.pdb
REMARK  4 active torsions:
REMARK  status: ('A' for Active; 'I' for Inactive)
REMARK    1  A    between atoms: C1_1  and  O1_2
REMARK    2  A    between atoms: O1_2  and  C2_3
REMARK    3  A    between atoms: C5_6  and  N1_7
REMARK    4  A    between atoms: C6_8  and  C7_10
REMARK                            x       y       z     vdW  Elec       q    Type
REMARK                         _______ _______ _______ _____ _____    ______ ____
ROOT
ATOM      1  N1  UNL     1     157.270 157.981 168.194  0.00  0.00    +0.000 N 
ATOM      2  C6  UNL     1     157.691 158.268 169.509  0.00  0.00    +0.000 C 
ATOM      3  O2  UNL     1     158.891 158.059 169.810  0.00  0.00    +0.000 OA
ATOM      4  H6  UNL     1     156.233 158.184 168.011  0.00  0.00    +0.000 HD
ENDROOT
BRANCH   2   5
ATOM      5  C7  UNL     1     156.751 158.800 170.518  0.00  0.00    +0.000 A 
ATOM      6  C8  UNL     1     155.474 159.228 170.249  0.00  0.00    +0.000 A 
ATOM      7  C9  UNL     1     154.889 159.657 171.415  0.00  0.00    +0.000 A 
ATOM      8  C10 UNL     1     153.635 160.167 171.648  0.00  0.00    +0.000 A 
ATOM      9  C11 UNL     1     153.275 160.537 172.951  0.00  0.00    +0.000 A 
ATOM     10  C12 UNL     1     154.235 160.354 173.920  0.00  0.00    +0.000 A 
ATOM     11  C13 UNL     1     155.471 159.839 173.619  0.00  0.00    +0.000 A 
ATOM     12  N2  UNL     1     155.817 159.484 172.374  0.00  0.00    +0.000 N 
ATOM     13  N3  UNL     1     156.929 158.973 171.833  0.00  0.00    +0.000 NA
ENDBRANCH   2   5
BRANCH   1  17
ATOM     14  C2  UNL     1     159.408 156.212 164.984  0.00  0.00    +0.000 A 
ATOM     15  C3  UNL     1     159.904 157.326 165.613  0.00  0.00    +0.000 A 
ATOM     16  C4  UNL     1     159.236 157.950 166.679  0.00  0.00    +0.000 A 
ATOM     17  C5  UNL     1     158.055 157.473 167.137  0.00  0.00    +0.000 A 
ATOM     18  C14 UNL     1     157.545 156.335 166.496  0.00  0.00    +0.000 A 
ATOM     19  C15 UNL     1     158.206 155.730 165.452  0.00  0.00    +0.000 A 
BRANCH  14  21
ATOM     20  C1  UNL     1     161.136 154.706 164.218  0.00  0.00    +0.000 C 
ATOM     21  O1  UNL     1     160.070 155.591 163.926  0.00  0.00    +0.000 OA
ENDBRANCH  14  21
ENDBRANCH   1  17
TORSDOF 3
ENDMDL
MODEL 5
REMARK VINA RESULT:      -5.1      2.529      8.506
REMARK  Name = ./3D_structures\o15_MMV374187_3D.pdb
REMARK  4 active torsions:
REMARK  status: ('A' for Active; 'I' for Inactive)
REMARK    1  A    between atoms: C1_1  and  O1_2
REMARK    2  A    between atoms: O1_2  and  C2_3
REMARK    3  A    between atoms: C5_6  and  N1_7
REMARK    4  A    between atoms: C6_8  and  C7_10
REMARK                            x       y       z     vdW  Elec       q    Type
REMARK                         _______ _______ _______ _____ _____    ______ ____
ROOT
ATOM      1  N1  UNL     1     156.715 158.240 168.743  0.00  0.00    +0.000 N 
ATOM      2  C6  UNL     1     156.101 157.329 167.859  0.00  0.00    +0.000 C 
ATOM      3  O2  UNL     1     154.920 156.975 168.091  0.00  0.00    +0.000 OA
ATOM      4  H6  UNL     1     157.723 158.495 168.480  0.00  0.00    +0.000 HD
ENDROOT
BRANCH   2   5
ATOM      5  C7  UNL     1     156.822 156.795 166.683  0.00  0.00    +0.000 A 
ATOM      6  C8  UNL     1     158.185 156.833 166.517  0.00  0.00    +0.000 A 
ATOM      7  C9  UNL     1     158.507 156.251 165.317  0.00  0.00    +0.000 A 
ATOM      8  C10 UNL     1     159.729 156.057 164.719  0.00  0.00    +0.000 A 
ATOM      9  C11 UNL     1     159.791 155.427 163.470  0.00  0.00    +0.000 A 
ATOM     10  C12 UNL     1     158.587 155.042 162.925  0.00  0.00    +0.000 A 
ATOM     11  C13 UNL     1     157.399 155.266 163.575  0.00  0.00    +0.000 A 
ATOM     12  N2  UNL     1     157.338 155.868 164.771  0.00  0.00    +0.000 N 
ATOM     13  N3  UNL     1     156.334 156.196 165.591  0.00  0.00    +0.000 NA
ENDBRANCH   2   5
BRANCH   1  17
ATOM     14  C2  UNL     1     155.212 159.810 172.387  0.00  0.00    +0.000 A 
ATOM     15  C3  UNL     1     154.688 160.225 171.189  0.00  0.00    +0.000 A 
ATOM     16  C4  UNL     1     155.149 159.738 169.956  0.00  0.00    +0.000 A 
ATOM     17  C5  UNL     1     156.148 158.825 169.895  0.00  0.00    +0.000 A 
ATOM     18  C14 UNL     1     156.686 158.400 171.118  0.00  0.00    +0.000 A 
ATOM     19  C15 UNL     1     156.228 158.883 172.322  0.00  0.00    +0.000 A 
BRANCH  14  21
ATOM     20  C1  UNL     1     154.322 161.639 173.695  0.00  0.00    +0.000 C 
ATOM     21  O1  UNL     1     154.756 160.293 173.613  0.00  0.00    +0.000 OA
ENDBRANCH  14  21
ENDBRANCH   1  17
TORSDOF 3
ENDMDL
MODEL 6
REMARK VINA RESULT:      -5.1      7.039     10.009
REMARK  Name = ./3D_structures\o15_MMV374187_3D.pdb
REMARK  4 active torsions:
REMARK  status: ('A' for Active; 'I' for Inactive)
REMARK    1  A    between atoms: C1_1  and  O1_2
REMARK    2  A    between atoms: O1_2  and  C2_3
REMARK    3  A    between atoms: C5_6  and  N1_7
REMARK    4  A    between atoms: C6_8  and  C7_10
REMARK                            x       y       z     vdW  Elec       q    Type
REMARK                         _______ _______ _______ _____ _____    ______ ____
ROOT
ATOM      1  N1  UNL     1     152.704 162.579 166.084  0.00  0.00    +0.000 N 
ATOM      2  C6  UNL     1     152.760 161.390 165.328  0.00  0.00    +0.000 C 
ATOM      3  O2  UNL     1     151.852 161.172 164.490  0.00  0.00    +0.000 OA
ATOM      4  H6  UNL     1     153.512 162.696 166.779  0.00  0.00    +0.000 HD
ENDROOT
BRANCH   2   5
ATOM      5  C7  UNL     1     153.857 160.414 165.510  0.00  0.00    +0.000 A 
ATOM      6  C8  UNL     1     153.791 159.304 166.315  0.00  0.00    +0.000 A 
ATOM      7  C9  UNL     1     154.983 158.628 166.245  0.00  0.00    +0.000 A 
ATOM      8  C10 UNL     1     155.391 157.472 166.867  0.00  0.00    +0.000 A 
ATOM      9  C11 UNL     1     156.680 156.979 166.626  0.00  0.00    +0.000 A 
ATOM     10  C12 UNL     1     157.457 157.715 165.760  0.00  0.00    +0.000 A 
ATOM     11  C13 UNL     1     156.989 158.863 165.172  0.00  0.00    +0.000 A 
ATOM     12  N2  UNL     1     155.756 159.336 165.401  0.00  0.00    +0.000 N 
ATOM     13  N3  UNL     1     155.079 160.403 164.965  0.00  0.00    +0.000 NA
ENDBRANCH   2   5
BRANCH   1  17
ATOM     14  C2  UNL     1     149.582 165.453 166.102  0.00  0.00    +0.000 A 
ATOM     15  C3  UNL     1     150.645 165.594 165.246  0.00  0.00    +0.000 A 
ATOM     16  C4  UNL     1     151.704 164.672 165.201  0.00  0.00    +0.000 A 
ATOM     17  C5  UNL     1     151.722 163.589 166.013  0.00  0.00    +0.000 A 
ATOM     18  C14 UNL     1     150.637 163.443 166.889  0.00  0.00    +0.000 A 
ATOM     19  C15 UNL     1     149.604 164.350 166.927  0.00  0.00    +0.000 A 
BRANCH  14  21
ATOM     20  C1  UNL     1     147.218 165.880 166.373  0.00  0.00    +0.000 C 
ATOM     21  O1  UNL     1     148.530 166.366 166.148  0.00  0.00    +0.000 OA
ENDBRANCH  14  21
ENDBRANCH   1  17
TORSDOF 3
ENDMDL
MODEL 7
REMARK VINA RESULT:      -5.1      9.418     10.996
REMARK  Name = ./3D_structures\o15_MMV374187_3D.pdb
REMARK  4 active torsions:
REMARK  status: ('A' for Active; 'I' for Inactive)
REMARK    1  A    between atoms: C1_1  and  O1_2
REMARK    2  A    between atoms: O1_2  and  C2_3
REMARK    3  A    between atoms: C5_6  and  N1_7
REMARK    4  A    between atoms: C6_8  and  C7_10
REMARK                            x       y       z     vdW  Elec       q    Type
REMARK                         _______ _______ _______ _____ _____    ______ ____
ROOT
ATOM      1  N1  UNL     1     150.276 161.972 166.881  0.00  0.00    +0.000 N 
ATOM      2  C6  UNL     1     150.003 163.253 167.406  0.00  0.00    +0.000 C 
ATOM      3  O2  UNL     1     150.836 163.766 168.192  0.00  0.00    +0.000 OA
ATOM      4  H6  UNL     1     149.520 161.600 166.218  0.00  0.00    +0.000 HD
ENDROOT
BRANCH   2   5
ATOM      5  C7  UNL     1     148.767 163.983 167.048  0.00  0.00    +0.000 A 
ATOM      6  C8  UNL     1     148.733 165.228 166.471  0.00  0.00    +0.000 A 
ATOM      7  C9  UNL     1     147.426 165.598 166.279  0.00  0.00    +0.000 A 
ATOM      8  C10 UNL     1     146.894 166.744 165.740  0.00  0.00    +0.000 A 
ATOM      9  C11 UNL     1     145.502 166.882 165.654  0.00  0.00    +0.000 A 
ATOM     10  C12 UNL     1     144.758 165.827 166.132  0.00  0.00    +0.000 A 
ATOM     11  C13 UNL     1     145.353 164.709 166.659  0.00  0.00    +0.000 A 
ATOM     12  N2  UNL     1     146.685 164.575 166.742  0.00  0.00    +0.000 N 
ATOM     13  N3  UNL     1     147.491 163.612 167.201  0.00  0.00    +0.000 NA
ENDBRANCH   2   5
BRANCH   1  17
ATOM     14  C2  UNL     1     153.771 159.609 167.333  0.00  0.00    +0.000 A 
ATOM     15  C3  UNL     1     152.897 159.756 168.381  0.00  0.00    +0.000 A 
ATOM     16  C4  UNL     1     151.728 160.528 168.284  0.00  0.00    +0.000 A 
ATOM     17  C5  UNL     1     151.408 161.169 167.136  0.00  0.00    +0.000 A 
ATOM     18  C14 UNL     1     152.300 161.021 166.064  0.00  0.00    +0.000 A 
ATOM     19  C15 UNL     1     153.443 160.264 166.167  0.00  0.00    +0.000 A 
BRANCH  14  21
ATOM     20  C1  UNL     1     154.864 157.582 168.067  0.00  0.00    +0.000 C 
ATOM     21  O1  UNL     1     154.932 158.844 167.427  0.00  0.00    +0.000 OA
ENDBRANCH  14  21
ENDBRANCH   1  17
TORSDOF 3
ENDMDL
MODEL 8
REMARK VINA RESULT:      -5.1     10.277     11.519
REMARK  Name = ./3D_structures\o15_MMV374187_3D.pdb
REMARK  4 active torsions:
REMARK  status: ('A' for Active; 'I' for Inactive)
REMARK    1  A    between atoms: C1_1  and  O1_2
REMARK    2  A    between atoms: O1_2  and  C2_3
REMARK    3  A    between atoms: C5_6  and  N1_7
REMARK    4  A    between atoms: C6_8  and  C7_10
REMARK                            x       y       z     vdW  Elec       q    Type
REMARK                         _______ _______ _______ _____ _____    ______ ____
ROOT
ATOM      1  N1  UNL     1     164.484 149.306 167.466  0.00  0.00    +0.000 N 
ATOM      2  C6  UNL     1     163.712 149.221 168.643  0.00  0.00    +0.000 C 
ATOM      3  O2  UNL     1     163.810 150.141 169.490  0.00  0.00    +0.000 OA
ATOM      4  H6  UNL     1     164.347 148.485 166.791  0.00  0.00    +0.000 HD
ENDROOT
BRANCH   2   5
ATOM      5  C7  UNL     1     162.804 148.078 168.885  0.00  0.00    +0.000 A 
ATOM      6  C8  UNL     1     161.978 147.953 169.975  0.00  0.00    +0.000 A 
ATOM      7  C9  UNL     1     161.281 146.774 169.876  0.00  0.00    +0.000 A 
ATOM      8  C10 UNL     1     160.346 146.219 170.716  0.00  0.00    +0.000 A 
ATOM      9  C11 UNL     1     159.772 144.984 170.384  0.00  0.00    +0.000 A 
ATOM     10  C12 UNL     1     160.205 144.411 169.210  0.00  0.00    +0.000 A 
ATOM     11  C13 UNL     1     161.144 145.020 168.416  0.00  0.00    +0.000 A 
ATOM     12  N2  UNL     1     161.693 146.201 168.731  0.00  0.00    +0.000 N 
ATOM     13  N3  UNL     1     162.605 146.984 168.143  0.00  0.00    +0.000 NA
ENDBRANCH   2   5
BRANCH   1  17
ATOM     14  C2  UNL     1     166.968 152.491 166.167  0.00  0.00    +0.000 A 
ATOM     15  C3  UNL     1     167.401 151.635 167.148  0.00  0.00    +0.000 A 
ATOM     16  C4  UNL     1     166.618 150.567 167.614  0.00  0.00    +0.000 A 
ATOM     17  C5  UNL     1     165.384 150.333 167.109  0.00  0.00    +0.000 A 
ATOM     18  C14 UNL     1     164.939 151.206 166.106  0.00  0.00    +0.000 A 
ATOM     19  C15 UNL     1     165.713 152.251 165.655  0.00  0.00    +0.000 A 
BRANCH  14  21
ATOM     20  C1  UNL     1     167.107 154.599 164.991  0.00  0.00    +0.000 C 
ATOM     21  O1  UNL     1     167.744 153.552 165.702  0.00  0.00    +0.000 OA
ENDBRANCH  14  21
ENDBRANCH   1  17
TORSDOF 3
ENDMDL
MODEL 9
REMARK VINA RESULT:      -5.0      8.946     10.865
REMARK  Name = ./3D_structures\o15_MMV374187_3D.pdb
REMARK  4 active torsions:
REMARK  status: ('A' for Active; 'I' for Inactive)
REMARK    1  A    between atoms: C1_1  and  O1_2
REMARK    2  A    between atoms: O1_2  and  C2_3
REMARK    3  A    between atoms: C5_6  and  N1_7
REMARK    4  A    between atoms: C6_8  and  C7_10
REMARK                            x       y       z     vdW  Elec       q    Type
REMARK                         _______ _______ _______ _____ _____    ______ ____
ROOT
ATOM      1  N1  UNL     1     150.547 161.669 168.231  0.00  0.00    +0.000 N 
ATOM      2  C6  UNL     1     149.150 161.560 168.072  0.00  0.00    +0.000 C 
ATOM      3  O2  UNL     1     148.589 160.496 168.430  0.00  0.00    +0.000 OA
ATOM      4  H6  UNL     1     150.955 162.605 167.904  0.00  0.00    +0.000 HD
ENDROOT
BRANCH   2   5
ATOM      5  C7  UNL     1     148.354 162.665 167.495  0.00  0.00    +0.000 A 
ATOM      6  C8  UNL     1     148.819 163.941 167.292  0.00  0.00    +0.000 A 
ATOM      7  C9  UNL     1     147.817 164.702 166.744  0.00  0.00    +0.000 A 
ATOM      8  C10 UNL     1     147.805 166.024 166.368  0.00  0.00    +0.000 A 
ATOM      9  C11 UNL     1     146.636 166.573 165.824  0.00  0.00    +0.000 A 
ATOM     10  C12 UNL     1     145.563 165.719 165.707  0.00  0.00    +0.000 A 
ATOM     11  C13 UNL     1     145.642 164.408 166.103  0.00  0.00    +0.000 A 
ATOM     12  N2  UNL     1     146.759 163.880 166.622  0.00  0.00    +0.000 N 
ATOM     13  N3  UNL     1     147.084 162.664 167.074  0.00  0.00    +0.000 NA
ENDBRANCH   2   5
BRANCH   1  17
ATOM     14  C2  UNL     1     153.337 158.752 169.540  0.00  0.00    +0.000 A 
ATOM     15  C3  UNL     1     152.335 159.173 170.377  0.00  0.00    +0.000 A 
ATOM     16  C4  UNL     1     151.387 160.135 169.994  0.00  0.00    +0.000 A 
ATOM     17  C5  UNL     1     151.423 160.699 168.764  0.00  0.00    +0.000 A 
ATOM     18  C14 UNL     1     152.447 160.272 167.906  0.00  0.00    +0.000 A 
ATOM     19  C15 UNL     1     153.371 159.328 168.290  0.00  0.00    +0.000 A 
BRANCH  14  21
ATOM     20  C1  UNL     1     155.162 157.287 168.936  0.00  0.00    +0.000 C 
ATOM     21  O1  UNL     1     154.279 157.797 169.919  0.00  0.00    +0.000 OA
ENDBRANCH  14  21
ENDBRANCH   1  17
TORSDOF 3
ENDMDL
