MODEL 1
REMARK VINA RESULT:      -5.9      0.000      0.000
REMARK  Name = ./3D_structures\o16_MMV1579781_3D.pdb
REMARK  7 active torsions:
REMARK  status: ('A' for Active; 'I' for Inactive)
REMARK    1  A    between atoms: C1_1  and  C2_2
REMARK    2  A    between atoms: C2_2  and  C3_3
REMARK    3  A    between atoms: C2_2  and  C10_10
REMARK    4  A    between atoms: C3_3  and  C4_4
REMARK    5  A    between atoms: N1_12  and  C11_13
REMARK    6  A    between atoms: C16_19  and  C17_20
REMARK    7  A    between atoms: C17_20  and  O3_22
REMARK                            x       y       z     vdW  Elec       q    Type
REMARK                         _______ _______ _______ _____ _____    ______ ____
ROOT
ATOM      1  C10 UNL     1     158.374 158.155 166.619  0.00  0.00    +0.000 C 
ATOM      2  O1  UNL     1     158.467 159.383 166.747  0.00  0.00    +0.000 OA
ATOM      3  N1  UNL     1     157.860 157.314 167.634  0.00  0.00    +0.000 N 
ATOM      4  H12 UNL     1     157.834 156.285 167.364  0.00  0.00    +0.000 HD
ENDROOT
BRANCH   3   5
ATOM      5  C11 UNL     1     157.394 157.763 168.890  0.00  0.00    +0.000 A 
ATOM      6  C12 UNL     1     158.253 158.249 169.864  0.00  0.00    +0.000 A 
ATOM      7  C13 UNL     1     157.819 158.737 171.102  0.00  0.00    +0.000 A 
ATOM      8  C14 UNL     1     156.466 158.719 171.327  0.00  0.00    +0.000 A 
ATOM      9 CL1  UNL     1     155.900 159.331 172.881  0.00  0.00    +0.000 Cl
ATOM     10  C15 UNL     1     155.608 158.244 170.377  0.00  0.00    +0.000 A 
ATOM     11  C16 UNL     1     156.033 157.748 169.126  0.00  0.00    +0.000 A 
BRANCH  11  12
ATOM     12  C17 UNL     1     155.007 157.254 168.229  0.00  0.00    +0.000 C 
ATOM     13  O2  UNL     1     155.096 157.250 167.004  0.00  0.00    +0.000 OA
BRANCH  12  14
ATOM     14  O3  UNL     1     153.801 156.730 168.736  0.00  0.00    +0.000 OA
ATOM     15  H16 UNL     1     153.327 155.970 168.265  0.00  0.00    +0.000 HD
ENDBRANCH  12  14
ENDBRANCH  11  12
ENDBRANCH   3   5
BRANCH   1  17
ATOM     16  C1  UNL     1     159.316 158.753 164.487  0.00  0.00    +0.000 C 
ATOM     17  C2  UNL     1     158.838 157.549 165.305  0.00  0.00    +0.000 C 
BRANCH  17  18
ATOM     18  C3  UNL     1     157.652 156.919 164.656  0.00  0.00    +0.000 C 
BRANCH  18  19
ATOM     19  C4  UNL     1     157.895 155.574 164.138  0.00  0.00    +0.000 A 
ATOM     20  C5  UNL     1     157.520 155.180 162.874  0.00  0.00    +0.000 A 
ATOM     21  C6  UNL     1     157.773 153.883 162.419  0.00  0.00    +0.000 A 
ATOM     22  C7  UNL     1     158.404 152.960 163.226  0.00  0.00    +0.000 A 
ATOM     23  C8  UNL     1     158.778 153.359 164.492  0.00  0.00    +0.000 A 
ATOM     24  C9  UNL     1     158.523 154.632 164.921  0.00  0.00    +0.000 A 
ENDBRANCH  18  19
ENDBRANCH  17  18
ENDBRANCH   1  17
TORSDOF 6
ENDMDL
MODEL 2
REMARK VINA RESULT:      -5.9      3.636      7.712
REMARK  Name = ./3D_structures\o16_MMV1579781_3D.pdb
REMARK  7 active torsions:
REMARK  status: ('A' for Active; 'I' for Inactive)
REMARK    1  A    between atoms: C1_1  and  C2_2
REMARK    2  A    between atoms: C2_2  and  C3_3
REMARK    3  A    between atoms: C2_2  and  C10_10
REMARK    4  A    between atoms: C3_3  and  C4_4
REMARK    5  A    between atoms: N1_12  and  C11_13
REMARK    6  A    between atoms: C16_19  and  C17_20
REMARK    7  A    between atoms: C17_20  and  O3_22
REMARK                            x       y       z     vdW  Elec       q    Type
REMARK                         _______ _______ _______ _____ _____    ______ ____
ROOT
ATOM      1  C10 UNL     1     157.515 159.158 170.829  0.00  0.00    +0.000 C 
ATOM      2  O1  UNL     1     158.200 158.199 171.209  0.00  0.00    +0.000 OA
ATOM      3  N1  UNL     1     157.163 159.361 169.473  0.00  0.00    +0.000 N 
ATOM      4  H12 UNL     1     156.561 160.223 169.313  0.00  0.00    +0.000 HD
ENDROOT
BRANCH   3   5
ATOM      5  C11 UNL     1     157.537 158.509 168.410  0.00  0.00    +0.000 A 
ATOM      6  C12 UNL     1     158.698 158.710 167.678  0.00  0.00    +0.000 A 
ATOM      7  C13 UNL     1     159.115 157.862 166.646  0.00  0.00    +0.000 A 
ATOM      8  C14 UNL     1     158.310 156.786 166.373  0.00  0.00    +0.000 A 
ATOM      9 CL1  UNL     1     158.820 155.705 165.076  0.00  0.00    +0.000 Cl
ATOM     10  C15 UNL     1     157.164 156.575 167.086  0.00  0.00    +0.000 A 
ATOM     11  C16 UNL     1     156.731 157.423 168.128  0.00  0.00    +0.000 A 
BRANCH  11  12
ATOM     12  C17 UNL     1     155.481 157.084 168.778  0.00  0.00    +0.000 C 
ATOM     13  O2  UNL     1     154.389 157.058 168.216  0.00  0.00    +0.000 OA
BRANCH  12  14
ATOM     14  O3  UNL     1     155.449 156.751 170.146  0.00  0.00    +0.000 OA
ATOM     15  H16 UNL     1     154.578 156.513 170.603  0.00  0.00    +0.000 HD
ENDBRANCH  12  14
ENDBRANCH  11  12
ENDBRANCH   3   5
BRANCH   1  17
ATOM     16  C1  UNL     1     155.738 159.538 172.407  0.00  0.00    +0.000 C 
ATOM     17  C2  UNL     1     157.044 160.146 171.883  0.00  0.00    +0.000 C 
BRANCH  17  18
ATOM     18  C3  UNL     1     156.772 161.443 171.196  0.00  0.00    +0.000 C 
BRANCH  18  19
ATOM     19  C4  UNL     1     157.835 162.435 171.347  0.00  0.00    +0.000 A 
ATOM     20  C5  UNL     1     158.881 162.551 170.460  0.00  0.00    +0.000 A 
ATOM     21  C6  UNL     1     159.876 163.515 170.642  0.00  0.00    +0.000 A 
ATOM     22  C7  UNL     1     159.838 164.377 171.718  0.00  0.00    +0.000 A 
ATOM     23  C8  UNL     1     158.788 164.257 172.604  0.00  0.00    +0.000 A 
ATOM     24  C9  UNL     1     157.823 163.308 172.410  0.00  0.00    +0.000 A 
ENDBRANCH  18  19
ENDBRANCH  17  18
ENDBRANCH   1  17
TORSDOF 6
ENDMDL
MODEL 3
REMARK VINA RESULT:      -5.8      3.508      5.855
REMARK  Name = ./3D_structures\o16_MMV1579781_3D.pdb
REMARK  7 active torsions:
REMARK  status: ('A' for Active; 'I' for Inactive)
REMARK    1  A    between atoms: C1_1  and  C2_2
REMARK    2  A    between atoms: C2_2  and  C3_3
REMARK    3  A    between atoms: C2_2  and  C10_10
REMARK    4  A    between atoms: C3_3  and  C4_4
REMARK    5  A    between atoms: N1_12  and  C11_13
REMARK    6  A    between atoms: C16_19  and  C17_20
REMARK    7  A    between atoms: C17_20  and  O3_22
REMARK                            x       y       z     vdW  Elec       q    Type
REMARK                         _______ _______ _______ _____ _____    ______ ____
ROOT
ATOM      1  C10 UNL     1     155.605 158.278 166.304  0.00  0.00    +0.000 C 
ATOM      2  O1  UNL     1     154.696 157.458 166.125  0.00  0.00    +0.000 OA
ATOM      3  N1  UNL     1     155.363 159.648 166.564  0.00  0.00    +0.000 N 
ATOM      4  H12 UNL     1     156.249 160.218 166.708  0.00  0.00    +0.000 HD
ENDROOT
BRANCH   3   5
ATOM      5  C11 UNL     1     154.080 160.233 166.655  0.00  0.00    +0.000 A 
ATOM      6  C12 UNL     1     153.320 160.520 165.532  0.00  0.00    +0.000 A 
ATOM      7  C13 UNL     1     152.031 161.064 165.591  0.00  0.00    +0.000 A 
ATOM      8  C14 UNL     1     151.528 161.311 166.842  0.00  0.00    +0.000 A 
ATOM      9 CL1  UNL     1     149.904 161.995 166.937  0.00  0.00    +0.000 Cl
ATOM     10  C15 UNL     1     152.266 161.034 167.958  0.00  0.00    +0.000 A 
ATOM     11  C16 UNL     1     153.565 160.487 167.912  0.00  0.00    +0.000 A 
BRANCH  11  12
ATOM     12  C17 UNL     1     154.235 160.270 169.179  0.00  0.00    +0.000 C 
ATOM     13  O2  UNL     1     155.363 160.675 169.449  0.00  0.00    +0.000 OA
BRANCH  12  14
ATOM     14  O3  UNL     1     153.601 159.554 170.213  0.00  0.00    +0.000 OA
ATOM     15  H16 UNL     1     154.131 159.189 170.994  0.00  0.00    +0.000 HD
ENDBRANCH  12  14
ENDBRANCH  11  12
ENDBRANCH   3   5
BRANCH   1  17
ATOM     16  C1  UNL     1     157.134 157.115 164.854  0.00  0.00    +0.000 C 
ATOM     17  C2  UNL     1     157.035 157.768 166.237  0.00  0.00    +0.000 C 
BRANCH  17  18
ATOM     18  C3  UNL     1     157.197 156.741 167.308  0.00  0.00    +0.000 C 
BRANCH  18  19
ATOM     19  C4  UNL     1     157.176 157.283 168.665  0.00  0.00    +0.000 A 
ATOM     20  C5  UNL     1     156.182 156.988 169.572  0.00  0.00    +0.000 A 
ATOM     21  C6  UNL     1     156.200 157.527 170.861  0.00  0.00    +0.000 A 
ATOM     22  C7  UNL     1     157.215 158.372 171.260  0.00  0.00    +0.000 A 
ATOM     23  C8  UNL     1     158.207 158.664 170.349  0.00  0.00    +0.000 A 
ATOM     24  C9  UNL     1     158.174 158.128 169.092  0.00  0.00    +0.000 A 
ENDBRANCH  18  19
ENDBRANCH  17  18
ENDBRANCH   1  17
TORSDOF 6
ENDMDL
MODEL 4
REMARK VINA RESULT:      -5.8      3.589      6.789
REMARK  Name = ./3D_structures\o16_MMV1579781_3D.pdb
REMARK  7 active torsions:
REMARK  status: ('A' for Active; 'I' for Inactive)
REMARK    1  A    between atoms: C1_1  and  C2_2
REMARK    2  A    between atoms: C2_2  and  C3_3
REMARK    3  A    between atoms: C2_2  and  C10_10
REMARK    4  A    between atoms: C3_3  and  C4_4
REMARK    5  A    between atoms: N1_12  and  C11_13
REMARK    6  A    between atoms: C16_19  and  C17_20
REMARK    7  A    between atoms: C17_20  and  O3_22
REMARK                            x       y       z     vdW  Elec       q    Type
REMARK                         _______ _______ _______ _____ _____    ______ ____
ROOT
ATOM      1  C10 UNL     1     155.601 158.015 167.204  0.00  0.00    +0.000 C 
ATOM      2  O1  UNL     1     155.800 156.798 167.086  0.00  0.00    +0.000 OA
ATOM      3  N1  UNL     1     156.651 158.956 167.317  0.00  0.00    +0.000 N 
ATOM      4  H12 UNL     1     156.316 159.963 167.397  0.00  0.00    +0.000 HD
ENDROOT
BRANCH   3   5
ATOM      5  C11 UNL     1     158.026 158.632 167.304  0.00  0.00    +0.000 A 
ATOM      6  C12 UNL     1     158.708 158.360 166.127  0.00  0.00    +0.000 A 
ATOM      7  C13 UNL     1     160.078 158.074 166.078  0.00  0.00    +0.000 A 
ATOM      8  C14 UNL     1     160.747 158.071 167.274  0.00  0.00    +0.000 A 
ATOM      9 CL1  UNL     1     162.473 157.714 167.232  0.00  0.00    +0.000 Cl
ATOM     10  C15 UNL     1     160.088 158.337 168.441  0.00  0.00    +0.000 A 
ATOM     11  C16 UNL     1     158.708 158.626 168.505  0.00  0.00    +0.000 A 
BRANCH  11  12
ATOM     12  C17 UNL     1     158.144 158.863 169.819  0.00  0.00    +0.000 C 
ATOM     13  O2  UNL     1     158.383 158.181 170.812  0.00  0.00    +0.000 OA
BRANCH  12  14
ATOM     14  O3  UNL     1     157.256 159.934 170.037  0.00  0.00    +0.000 OA
ATOM     15  H16 UNL     1     156.914 160.145 170.966  0.00  0.00    +0.000 HD
ENDBRANCH  12  14
ENDBRANCH  11  12
ENDBRANCH   3   5
BRANCH   1  17
ATOM     16  C1  UNL     1     154.085 159.508 166.079  0.00  0.00    +0.000 C 
ATOM     17  C2  UNL     1     154.159 158.492 167.224  0.00  0.00    +0.000 C 
BRANCH  17  18
ATOM     18  C3  UNL     1     153.927 159.170 168.533  0.00  0.00    +0.000 C 
BRANCH  18  19
ATOM     19  C4  UNL     1     152.639 158.858 169.150  0.00  0.00    +0.000 A 
ATOM     20  C5  UNL     1     152.379 157.658 169.774  0.00  0.00    +0.000 A 
ATOM     21  C6  UNL     1     151.133 157.401 170.351  0.00  0.00    +0.000 A 
ATOM     22  C7  UNL     1     150.126 158.343 170.310  0.00  0.00    +0.000 A 
ATOM     23  C8  UNL     1     150.391 159.543 169.684  0.00  0.00    +0.000 A 
ATOM     24  C9  UNL     1     151.616 159.778 169.124  0.00  0.00    +0.000 A 
ENDBRANCH  18  19
ENDBRANCH  17  18
ENDBRANCH   1  17
TORSDOF 6
ENDMDL
MODEL 5
REMARK VINA RESULT:      -5.7     10.432     12.085
REMARK  Name = ./3D_structures\o16_MMV1579781_3D.pdb
REMARK  7 active torsions:
REMARK  status: ('A' for Active; 'I' for Inactive)
REMARK    1  A    between atoms: C1_1  and  C2_2
REMARK    2  A    between atoms: C2_2  and  C3_3
REMARK    3  A    between atoms: C2_2  and  C10_10
REMARK    4  A    between atoms: C3_3  and  C4_4
REMARK    5  A    between atoms: N1_12  and  C11_13
REMARK    6  A    between atoms: C16_19  and  C17_20
REMARK    7  A    between atoms: C17_20  and  O3_22
REMARK                            x       y       z     vdW  Elec       q    Type
REMARK                         _______ _______ _______ _____ _____    ______ ____
ROOT
ATOM      1  C10 UNL     1     149.315 164.590 167.024  0.00  0.00    +0.000 C 
ATOM      2  O1  UNL     1     149.279 163.359 166.898  0.00  0.00    +0.000 OA
ATOM      3  N1  UNL     1     148.153 165.378 167.198  0.00  0.00    +0.000 N 
ATOM      4  H12 UNL     1     148.354 166.417 167.304  0.00  0.00    +0.000 HD
ENDROOT
BRANCH   3   5
ATOM      5  C11 UNL     1     146.837 164.867 167.254  0.00  0.00    +0.000 A 
ATOM      6  C12 UNL     1     145.986 164.903 166.160  0.00  0.00    +0.000 A 
ATOM      7  C13 UNL     1     144.691 164.371 166.172  0.00  0.00    +0.000 A 
ATOM      8  C14 UNL     1     144.278 163.792 167.344  0.00  0.00    +0.000 A 
ATOM      9 CL1  UNL     1     142.650 163.114 167.379  0.00  0.00    +0.000 Cl
ATOM     10  C15 UNL     1     145.106 163.749 168.430  0.00  0.00    +0.000 A 
ATOM     11  C16 UNL     1     146.412 164.282 168.431  0.00  0.00    +0.000 A 
BRANCH  11  12
ATOM     12  C17 UNL     1     147.163 164.184 169.667  0.00  0.00    +0.000 C 
ATOM     13  O2  UNL     1     146.970 164.886 170.656  0.00  0.00    +0.000 OA
BRANCH  12  14
ATOM     14  O3  UNL     1     148.199 163.240 169.805  0.00  0.00    +0.000 OA
ATOM     15  H16 UNL     1     149.108 163.401 169.391  0.00  0.00    +0.000 HD
ENDBRANCH  12  14
ENDBRANCH  11  12
ENDBRANCH   3   5
BRANCH   1  17
ATOM     16  C1  UNL     1     150.559 166.407 167.996  0.00  0.00    +0.000 C 
ATOM     17  C2  UNL     1     150.679 165.260 166.987  0.00  0.00    +0.000 C 
BRANCH  17  18
ATOM     18  C3  UNL     1     150.879 165.800 165.610  0.00  0.00    +0.000 C 
BRANCH  18  19
ATOM     19  C4  UNL     1     151.982 165.181 164.878  0.00  0.00    +0.000 A 
ATOM     20  C5  UNL     1     151.879 163.949 164.272  0.00  0.00    +0.000 A 
ATOM     21  C6  UNL     1     152.959 163.393 163.581  0.00  0.00    +0.000 A 
ATOM     22  C7  UNL     1     154.160 164.065 163.488  0.00  0.00    +0.000 A 
ATOM     23  C8  UNL     1     154.259 165.298 164.096  0.00  0.00    +0.000 A 
ATOM     24  C9  UNL     1     153.192 165.827 164.768  0.00  0.00    +0.000 A 
ENDBRANCH  18  19
ENDBRANCH  17  18
ENDBRANCH   1  17
TORSDOF 6
ENDMDL
MODEL 6
REMARK VINA RESULT:      -5.7      9.057     11.173
REMARK  Name = ./3D_structures\o16_MMV1579781_3D.pdb
REMARK  7 active torsions:
REMARK  status: ('A' for Active; 'I' for Inactive)
REMARK    1  A    between atoms: C1_1  and  C2_2
REMARK    2  A    between atoms: C2_2  and  C3_3
REMARK    3  A    between atoms: C2_2  and  C10_10
REMARK    4  A    between atoms: C3_3  and  C4_4
REMARK    5  A    between atoms: N1_12  and  C11_13
REMARK    6  A    between atoms: C16_19  and  C17_20
REMARK    7  A    between atoms: C17_20  and  O3_22
REMARK                            x       y       z     vdW  Elec       q    Type
REMARK                         _______ _______ _______ _____ _____    ______ ____
ROOT
ATOM      1  C10 UNL     1     149.466 163.285 169.363  0.00  0.00    +0.000 C 
ATOM      2  O1  UNL     1     149.562 164.358 169.973  0.00  0.00    +0.000 OA
ATOM      3  N1  UNL     1     148.623 163.113 168.240  0.00  0.00    +0.000 N 
ATOM      4  H12 UNL     1     148.664 162.136 167.821  0.00  0.00    +0.000 HD
ENDROOT
BRANCH   3   5
ATOM      5  C11 UNL     1     147.809 164.125 167.684  0.00  0.00    +0.000 A 
ATOM      6  C12 UNL     1     148.294 165.035 166.758  0.00  0.00    +0.000 A 
ATOM      7  C13 UNL     1     147.503 166.024 166.160  0.00  0.00    +0.000 A 
ATOM      8  C14 UNL     1     146.185 166.063 166.535  0.00  0.00    +0.000 A 
ATOM      9 CL1  UNL     1     145.172 167.301 165.792  0.00  0.00    +0.000 Cl
ATOM     10  C15 UNL     1     145.693 165.172 167.447  0.00  0.00    +0.000 A 
ATOM     11  C16 UNL     1     146.479 164.172 168.056  0.00  0.00    +0.000 A 
BRANCH  11  12
ATOM     12  C17 UNL     1     145.822 163.316 169.024  0.00  0.00    +0.000 C 
ATOM     13  O2  UNL     1     146.202 163.153 170.181  0.00  0.00    +0.000 OA
BRANCH  12  14
ATOM     14  O3  UNL     1     144.665 162.593 168.675  0.00  0.00    +0.000 OA
ATOM     15  H16 UNL     1     144.571 161.614 168.914  0.00  0.00    +0.000 HD
ENDBRANCH  12  14
ENDBRANCH  11  12
ENDBRANCH   3   5
BRANCH   1  17
ATOM     16  C1  UNL     1     151.558 162.777 170.440  0.00  0.00    +0.000 C 
ATOM     17  C2  UNL     1     150.301 162.117 169.862  0.00  0.00    +0.000 C 
BRANCH  17  18
ATOM     18  C3  UNL     1     150.653 161.278 168.679  0.00  0.00    +0.000 C 
BRANCH  18  19
ATOM     19  C4  UNL     1     151.377 160.052 169.008  0.00  0.00    +0.000 A 
ATOM     20  C5  UNL     1     150.856 159.072 169.823  0.00  0.00    +0.000 A 
ATOM     21  C6  UNL     1     151.582 157.913 170.112  0.00  0.00    +0.000 A 
ATOM     22  C7  UNL     1     152.844 157.721 169.589  0.00  0.00    +0.000 A 
ATOM     23  C8  UNL     1     153.362 158.705 168.774  0.00  0.00    +0.000 A 
ATOM     24  C9  UNL     1     152.637 159.832 168.502  0.00  0.00    +0.000 A 
ENDBRANCH  18  19
ENDBRANCH  17  18
ENDBRANCH   1  17
TORSDOF 6
ENDMDL
MODEL 7
REMARK VINA RESULT:      -5.6      1.741      2.776
REMARK  Name = ./3D_structures\o16_MMV1579781_3D.pdb
REMARK  7 active torsions:
REMARK  status: ('A' for Active; 'I' for Inactive)
REMARK    1  A    between atoms: C1_1  and  C2_2
REMARK    2  A    between atoms: C2_2  and  C3_3
REMARK    3  A    between atoms: C2_2  and  C10_10
REMARK    4  A    between atoms: C3_3  and  C4_4
REMARK    5  A    between atoms: N1_12  and  C11_13
REMARK    6  A    between atoms: C16_19  and  C17_20
REMARK    7  A    between atoms: C17_20  and  O3_22
REMARK                            x       y       z     vdW  Elec       q    Type
REMARK                         _______ _______ _______ _____ _____    ______ ____
ROOT
ATOM      1  C10 UNL     1     157.296 156.962 166.473  0.00  0.00    +0.000 C 
ATOM      2  O1  UNL     1     156.811 157.916 165.850  0.00  0.00    +0.000 OA
ATOM      3  N1  UNL     1     156.943 156.660 167.809  0.00  0.00    +0.000 N 
ATOM      4  H12 UNL     1     157.437 155.801 168.198  0.00  0.00    +0.000 HD
ENDROOT
BRANCH   3   5
ATOM      5  C11 UNL     1     156.011 157.391 168.579  0.00  0.00    +0.000 A 
ATOM      6  C12 UNL     1     154.650 157.356 168.315  0.00  0.00    +0.000 A 
ATOM      7  C13 UNL     1     153.698 158.037 169.083  0.00  0.00    +0.000 A 
ATOM      8  C14 UNL     1     154.173 158.766 170.143  0.00  0.00    +0.000 A 
ATOM      9 CL1  UNL     1     152.988 159.630 171.123  0.00  0.00    +0.000 Cl
ATOM     10  C15 UNL     1     155.511 158.810 170.415  0.00  0.00    +0.000 A 
ATOM     11  C16 UNL     1     156.481 158.128 169.649  0.00  0.00    +0.000 A 
BRANCH  11  12
ATOM     12  C17 UNL     1     157.866 158.289 170.044  0.00  0.00    +0.000 C 
ATOM     13  O2  UNL     1     158.802 158.425 169.261  0.00  0.00    +0.000 OA
BRANCH  12  14
ATOM     14  O3  UNL     1     158.227 158.300 171.405  0.00  0.00    +0.000 OA
ATOM     15  H16 UNL     1     159.199 158.351 171.684  0.00  0.00    +0.000 HD
ENDBRANCH  12  14
ENDBRANCH  11  12
ENDBRANCH   3   5
BRANCH   1  17
ATOM     16  C1  UNL     1     159.546 156.989 165.619  0.00  0.00    +0.000 C 
ATOM     17  C2  UNL     1     158.310 156.092 165.749  0.00  0.00    +0.000 C 
BRANCH  17  18
ATOM     18  C3  UNL     1     157.753 155.780 164.400  0.00  0.00    +0.000 C 
BRANCH  18  19
ATOM     19  C4  UNL     1     158.025 154.420 163.939  0.00  0.00    +0.000 A 
ATOM     20  C5  UNL     1     158.713 153.497 164.696  0.00  0.00    +0.000 A 
ATOM     21  C6  UNL     1     158.951 152.207 164.217  0.00  0.00    +0.000 A 
ATOM     22  C7  UNL     1     158.504 151.820 162.970  0.00  0.00    +0.000 A 
ATOM     23  C8  UNL     1     157.816 152.748 162.216  0.00  0.00    +0.000 A 
ATOM     24  C9  UNL     1     157.592 154.006 162.700  0.00  0.00    +0.000 A 
ENDBRANCH  18  19
ENDBRANCH  17  18
ENDBRANCH   1  17
TORSDOF 6
ENDMDL
MODEL 8
REMARK VINA RESULT:      -5.5      3.181      6.668
REMARK  Name = ./3D_structures\o16_MMV1579781_3D.pdb
REMARK  7 active torsions:
REMARK  status: ('A' for Active; 'I' for Inactive)
REMARK    1  A    between atoms: C1_1  and  C2_2
REMARK    2  A    between atoms: C2_2  and  C3_3
REMARK    3  A    between atoms: C2_2  and  C10_10
REMARK    4  A    between atoms: C3_3  and  C4_4
REMARK    5  A    between atoms: N1_12  and  C11_13
REMARK    6  A    between atoms: C16_19  and  C17_20
REMARK    7  A    between atoms: C17_20  and  O3_22
REMARK                            x       y       z     vdW  Elec       q    Type
REMARK                         _______ _______ _______ _____ _____    ______ ____
ROOT
ATOM      1  C10 UNL     1     157.543 158.425 169.508  0.00  0.00    +0.000 C 
ATOM      2  O1  UNL     1     158.552 157.990 170.078  0.00  0.00    +0.000 OA
ATOM      3  N1  UNL     1     157.400 158.434 168.101  0.00  0.00    +0.000 N 
ATOM      4  H12 UNL     1     156.469 158.828 167.769  0.00  0.00    +0.000 HD
ENDROOT
BRANCH   3   5
ATOM      5  C11 UNL     1     158.368 157.952 167.192  0.00  0.00    +0.000 A 
ATOM      6  C12 UNL     1     159.693 158.360 167.242  0.00  0.00    +0.000 A 
ATOM      7  C13 UNL     1     160.683 157.872 166.380  0.00  0.00    +0.000 A 
ATOM      8  C14 UNL     1     160.286 156.944 165.454  0.00  0.00    +0.000 A 
ATOM      9 CL1  UNL     1     161.520 156.316 164.361  0.00  0.00    +0.000 Cl
ATOM     10  C15 UNL     1     158.984 156.532 165.393  0.00  0.00    +0.000 A 
ATOM     11  C16 UNL     1     157.977 157.016 166.254  0.00  0.00    +0.000 A 
BRANCH  11  12
ATOM     12  C17 UNL     1     156.636 156.504 166.053  0.00  0.00    +0.000 C 
ATOM     13  O2  UNL     1     155.652 156.858 166.698  0.00  0.00    +0.000 OA
BRANCH  12  14
ATOM     14  O3  UNL     1     156.378 155.533 165.067  0.00  0.00    +0.000 OA
ATOM     15  H16 UNL     1     155.451 155.144 164.949  0.00  0.00    +0.000 HD
ENDBRANCH  12  14
ENDBRANCH  11  12
ENDBRANCH   3   5
BRANCH   1  17
ATOM     16  C1  UNL     1     156.960 158.824 171.809  0.00  0.00    +0.000 C 
ATOM     17  C2  UNL     1     156.423 158.967 170.381  0.00  0.00    +0.000 C 
BRANCH  17  18
ATOM     18  C3  UNL     1     155.233 158.088 170.184  0.00  0.00    +0.000 C 
BRANCH  18  19
ATOM     19  C4  UNL     1     154.054 158.780 169.668  0.00  0.00    +0.000 A 
ATOM     20  C5  UNL     1     154.134 159.905 168.878  0.00  0.00    +0.000 A 
ATOM     21  C6  UNL     1     152.981 160.537 168.405  0.00  0.00    +0.000 A 
ATOM     22  C7  UNL     1     151.729 160.051 168.718  0.00  0.00    +0.000 A 
ATOM     23  C8  UNL     1     151.654 158.923 169.509  0.00  0.00    +0.000 A 
ATOM     24  C9  UNL     1     152.793 158.318 169.963  0.00  0.00    +0.000 A 
ENDBRANCH  18  19
ENDBRANCH  17  18
ENDBRANCH   1  17
TORSDOF 6
ENDMDL
MODEL 9
REMARK VINA RESULT:      -5.4      3.275      4.378
REMARK  Name = ./3D_structures\o16_MMV1579781_3D.pdb
REMARK  7 active torsions:
REMARK  status: ('A' for Active; 'I' for Inactive)
REMARK    1  A    between atoms: C1_1  and  C2_2
REMARK    2  A    between atoms: C2_2  and  C3_3
REMARK    3  A    between atoms: C2_2  and  C10_10
REMARK    4  A    between atoms: C3_3  and  C4_4
REMARK    5  A    between atoms: N1_12  and  C11_13
REMARK    6  A    between atoms: C16_19  and  C17_20
REMARK    7  A    between atoms: C17_20  and  O3_22
REMARK                            x       y       z     vdW  Elec       q    Type
REMARK                         _______ _______ _______ _____ _____    ______ ____
ROOT
ATOM      1  C10 UNL     1     158.742 158.772 169.009  0.00  0.00    +0.000 C 
ATOM      2  O1  UNL     1     158.759 158.090 170.042  0.00  0.00    +0.000 OA
ATOM      3  N1  UNL     1     157.547 159.106 168.330  0.00  0.00    +0.000 N 
ATOM      4  H12 UNL     1     157.701 159.709 167.467  0.00  0.00    +0.000 HD
ENDROOT
BRANCH   3   5
ATOM      5  C11 UNL     1     156.253 158.715 168.740  0.00  0.00    +0.000 A 
ATOM      6  C12 UNL     1     155.602 159.324 169.802  0.00  0.00    +0.000 A 
ATOM      7  C13 UNL     1     154.305 158.986 170.208  0.00  0.00    +0.000 A 
ATOM      8  C14 UNL     1     153.678 157.997 169.494  0.00  0.00    +0.000 A 
ATOM      9 CL1  UNL     1     152.044 157.558 169.990  0.00  0.00    +0.000 Cl
ATOM     10  C15 UNL     1     154.308 157.388 168.446  0.00  0.00    +0.000 A 
ATOM     11  C16 UNL     1     155.614 157.719 168.027  0.00  0.00    +0.000 A 
BRANCH  11  12
ATOM     12  C17 UNL     1     156.160 156.968 166.914  0.00  0.00    +0.000 C 
ATOM     13  O2  UNL     1     155.582 156.792 165.844  0.00  0.00    +0.000 OA
BRANCH  12  14
ATOM     14  O3  UNL     1     157.435 156.377 167.002  0.00  0.00    +0.000 OA
ATOM     15  H16 UNL     1     157.599 155.441 166.654  0.00  0.00    +0.000 HD
ENDBRANCH  12  14
ENDBRANCH  11  12
ENDBRANCH   3   5
BRANCH   1  17
ATOM     16  C1  UNL     1     159.953 160.789 168.497  0.00  0.00    +0.000 C 
ATOM     17  C2  UNL     1     160.076 159.261 168.469  0.00  0.00    +0.000 C 
BRANCH  17  18
ATOM     18  C3  UNL     1     160.197 158.777 167.062  0.00  0.00    +0.000 C 
BRANCH  18  19
ATOM     19  C4  UNL     1     161.532 158.302 166.704  0.00  0.00    +0.000 A 
ATOM     20  C5  UNL     1     162.131 158.594 165.500  0.00  0.00    +0.000 A 
ATOM     21  C6  UNL     1     163.410 158.119 165.198  0.00  0.00    +0.000 A 
ATOM     22  C7  UNL     1     164.108 157.342 166.099  0.00  0.00    +0.000 A 
ATOM     23  C8  UNL     1     163.503 157.052 167.305  0.00  0.00    +0.000 A 
ATOM     24  C9  UNL     1     162.251 157.525 167.583  0.00  0.00    +0.000 A 
ENDBRANCH  18  19
ENDBRANCH  17  18
ENDBRANCH   1  17
TORSDOF 6
ENDMDL
