MODEL 1
REMARK VINA RESULT:      -6.7      0.000      0.000
REMARK  Name = ./3D_structures\o17_MMV1579780_3D.pdb
REMARK  8 active torsions:
REMARK  status: ('A' for Active; 'I' for Inactive)
REMARK    1  A    between atoms: C1_1  and  C2_2
REMARK    2  A    between atoms: C2_2  and  C3_3
REMARK    3  A    between atoms: C2_2  and  N1_4
REMARK    4  A    between atoms: C6_8  and  N3_9
REMARK    5  A    between atoms: N3_9  and  C7_10
REMARK    6  A    between atoms: C7_10  and  C8_11
REMARK    7  A    between atoms: N5_19  and  C15_20
REMARK    8  A    between atoms: C15_20  and  C16_21
REMARK                            x       y       z     vdW  Elec       q    Type
REMARK                         _______ _______ _______ _____ _____    ______ ____
ROOT
ATOM      1  N1  UNL     1     159.938 157.860 166.717  0.00  0.00    +0.000 N 
ATOM      2  C4  UNL     1     159.642 158.846 167.593  0.00  0.00    +0.000 A 
ATOM      3  N2  UNL     1     158.322 158.850 167.779  0.00  0.00    +0.000 NA
ATOM      4  C5  UNL     1     157.739 157.888 167.042  0.00  0.00    +0.000 A 
ATOM      5  C6  UNL     1     156.445 157.461 166.855  0.00  0.00    +0.000 A 
ATOM      6  N4  UNL     1     156.231 156.437 166.016  0.00  0.00    +0.000 NA
ATOM      7  C14 UNL     1     157.211 155.810 165.349  0.00  0.00    +0.000 A 
ATOM      8  N5  UNL     1     156.924 154.712 164.454  0.00  0.00    +0.000 N 
ATOM      9  N6  UNL     1     158.469 156.235 165.537  0.00  0.00    +0.000 NA
ATOM     10  C22 UNL     1     158.780 157.266 166.370  0.00  0.00    +0.000 A 
ATOM     11  H17 UNL     1     155.929 154.405 164.332  0.00  0.00    +0.000 HD
ENDROOT
BRANCH   1  13
ATOM     12  C1  UNL     1     161.675 158.360 165.061  0.00  0.00    +0.000 C 
ATOM     13  C2  UNL     1     161.229 157.497 166.230  0.00  0.00    +0.000 C 
ATOM     14  C3  UNL     1     162.208 157.610 167.387  0.00  0.00    +0.000 C 
ENDBRANCH   1  13
BRANCH   5  15
ATOM     15  N3  UNL     1     155.401 158.119 167.557  0.00  0.00    +0.000 N 
ATOM     16  H9  UNL     1     155.133 159.077 167.257  0.00  0.00    +0.000 HD
BRANCH  15  17
ATOM     17  C7  UNL     1     154.700 157.522 168.663  0.00  0.00    +0.000 C 
BRANCH  17  18
ATOM     18  C8  UNL     1     155.110 158.192 169.921  0.00  0.00    +0.000 A 
ATOM     19  C9  UNL     1     154.417 159.239 170.453  0.00  0.00    +0.000 A 
ATOM     20  C10 UNL     1     154.831 159.848 171.640  0.00  0.00    +0.000 A 
ATOM     21  C11 UNL     1     155.947 159.381 172.272  0.00  0.00    +0.000 A 
ATOM     22  C12 UNL     1     156.671 158.325 171.763  0.00  0.00    +0.000 A 
ATOM     23  C13 UNL     1     156.234 157.741 170.580  0.00  0.00    +0.000 A 
ENDBRANCH  17  18
ENDBRANCH  15  17
ENDBRANCH   5  15
BRANCH   8  24
ATOM     24  C15 UNL     1     157.950 154.029 163.735  0.00  0.00    +0.000 C 
BRANCH  24  25
ATOM     25  C16 UNL     1     157.889 152.571 164.092  0.00  0.00    +0.000 A 
ATOM     26  C17 UNL     1     158.985 151.932 164.630  0.00  0.00    +0.000 A 
ATOM     27  C18 UNL     1     158.900 150.596 164.942  0.00  0.00    +0.000 A 
ATOM     28  C19 UNL     1     157.721 149.910 164.713  0.00  0.00    +0.000 A 
ATOM     29  C20 UNL     1     156.630 150.559 164.175  0.00  0.00    +0.000 A 
ATOM     30  C21 UNL     1     156.712 151.896 163.862  0.00  0.00    +0.000 A 
ENDBRANCH  24  25
ENDBRANCH   8  24
TORSDOF 6
ENDMDL
MODEL 2
REMARK VINA RESULT:      -6.6     10.597     13.663
REMARK  Name = ./3D_structures\o17_MMV1579780_3D.pdb
REMARK  8 active torsions:
REMARK  status: ('A' for Active; 'I' for Inactive)
REMARK    1  A    between atoms: C1_1  and  C2_2
REMARK    2  A    between atoms: C2_2  and  C3_3
REMARK    3  A    between atoms: C2_2  and  N1_4
REMARK    4  A    between atoms: C6_8  and  N3_9
REMARK    5  A    between atoms: N3_9  and  C7_10
REMARK    6  A    between atoms: C7_10  and  C8_11
REMARK    7  A    between atoms: N5_19  and  C15_20
REMARK    8  A    between atoms: C15_20  and  C16_21
REMARK                            x       y       z     vdW  Elec       q    Type
REMARK                         _______ _______ _______ _____ _____    ______ ____
ROOT
ATOM      1  N1  UNL     1     146.946 164.325 168.602  0.00  0.00    +0.000 N 
ATOM      2  C4  UNL     1     146.526 164.396 169.885  0.00  0.00    +0.000 A 
ATOM      3  N2  UNL     1     147.429 165.091 170.577  0.00  0.00    +0.000 NA
ATOM      4  C5  UNL     1     148.439 165.479 169.778  0.00  0.00    +0.000 A 
ATOM      5  C6  UNL     1     149.599 166.196 169.960  0.00  0.00    +0.000 A 
ATOM      6  N4  UNL     1     150.393 166.397 168.899  0.00  0.00    +0.000 NA
ATOM      7  C14 UNL     1     150.117 165.935 167.670  0.00  0.00    +0.000 A 
ATOM      8  N5  UNL     1     151.010 166.179 166.560  0.00  0.00    +0.000 N 
ATOM      9  N6  UNL     1     148.983 165.236 167.503  0.00  0.00    +0.000 NA
ATOM     10  C22 UNL     1     148.118 164.984 168.523  0.00  0.00    +0.000 A 
ATOM     11  H17 UNL     1     151.886 166.729 166.727  0.00  0.00    +0.000 HD
ENDROOT
BRANCH   1  13
ATOM     12  C1  UNL     1     145.500 162.455 167.954  0.00  0.00    +0.000 C 
ATOM     13  C2  UNL     1     146.290 163.677 167.514  0.00  0.00    +0.000 C 
ATOM     14  C3  UNL     1     145.379 164.696 166.849  0.00  0.00    +0.000 C 
ENDBRANCH   1  13
BRANCH   5  15
ATOM     15  N3  UNL     1     149.898 166.689 171.257  0.00  0.00    +0.000 N 
ATOM     16  H9  UNL     1     149.287 166.402 172.048  0.00  0.00    +0.000 HD
BRANCH  15  17
ATOM     17  C7  UNL     1     151.007 167.566 171.528  0.00  0.00    +0.000 C 
BRANCH  17  18
ATOM     18  C8  UNL     1     150.557 168.974 171.407  0.00  0.00    +0.000 A 
ATOM     19  C9  UNL     1     150.784 169.721 170.289  0.00  0.00    +0.000 A 
ATOM     20  C10 UNL     1     150.347 171.045 170.207  0.00  0.00    +0.000 A 
ATOM     21  C11 UNL     1     149.682 171.592 171.266  0.00  0.00    +0.000 A 
ATOM     22  C12 UNL     1     149.434 170.866 172.410  0.00  0.00    +0.000 A 
ATOM     23  C13 UNL     1     149.883 169.552 172.461  0.00  0.00    +0.000 A 
ENDBRANCH  17  18
ENDBRANCH  15  17
ENDBRANCH   5  15
BRANCH   8  24
ATOM     24  C15 UNL     1     150.736 165.697 165.244  0.00  0.00    +0.000 C 
BRANCH  24  25
ATOM     25  C16 UNL     1     152.015 165.170 164.659  0.00  0.00    +0.000 A 
ATOM     26  C17 UNL     1     153.156 165.942 164.652  0.00  0.00    +0.000 A 
ATOM     27  C18 UNL     1     154.310 165.434 164.105  0.00  0.00    +0.000 A 
ATOM     28  C19 UNL     1     154.314 164.158 163.568  0.00  0.00    +0.000 A 
ATOM     29  C20 UNL     1     153.166 163.395 163.580  0.00  0.00    +0.000 A 
ATOM     30  C21 UNL     1     152.010 163.900 164.128  0.00  0.00    +0.000 A 
ENDBRANCH  24  25
ENDBRANCH   8  24
TORSDOF 6
ENDMDL
MODEL 3
REMARK VINA RESULT:      -6.5     10.405     14.011
REMARK  Name = ./3D_structures\o17_MMV1579780_3D.pdb
REMARK  8 active torsions:
REMARK  status: ('A' for Active; 'I' for Inactive)
REMARK    1  A    between atoms: C1_1  and  C2_2
REMARK    2  A    between atoms: C2_2  and  C3_3
REMARK    3  A    between atoms: C2_2  and  N1_4
REMARK    4  A    between atoms: C6_8  and  N3_9
REMARK    5  A    between atoms: N3_9  and  C7_10
REMARK    6  A    between atoms: C7_10  and  C8_11
REMARK    7  A    between atoms: N5_19  and  C15_20
REMARK    8  A    between atoms: C15_20  and  C16_21
REMARK                            x       y       z     vdW  Elec       q    Type
REMARK                         _______ _______ _______ _____ _____    ______ ____
ROOT
ATOM      1  N1  UNL     1     147.836 164.914 169.901  0.00  0.00    +0.000 N 
ATOM      2  C4  UNL     1     146.566 164.762 170.337  0.00  0.00    +0.000 A 
ATOM      3  N2  UNL     1     145.751 164.905 169.291  0.00  0.00    +0.000 NA
ATOM      4  C5  UNL     1     146.458 165.149 168.173  0.00  0.00    +0.000 A 
ATOM      5  C6  UNL     1     146.138 165.372 166.854  0.00  0.00    +0.000 A 
ATOM      6  N4  UNL     1     147.138 165.587 165.987  0.00  0.00    +0.000 NA
ATOM      7  C14 UNL     1     148.433 165.598 166.339  0.00  0.00    +0.000 A 
ATOM      8  N5  UNL     1     149.473 165.836 165.364  0.00  0.00    +0.000 N 
ATOM      9  N6  UNL     1     148.734 165.380 167.629  0.00  0.00    +0.000 NA
ATOM     10  C22 UNL     1     147.785 165.153 168.577  0.00  0.00    +0.000 A 
ATOM     11  H17 UNL     1     149.201 166.002 164.365  0.00  0.00    +0.000 HD
ENDROOT
BRANCH   1  13
ATOM     12  C1  UNL     1     150.069 163.916 170.069  0.00  0.00    +0.000 C 
ATOM     13  C2  UNL     1     149.030 164.842 170.679  0.00  0.00    +0.000 C 
ATOM     14  C3  UNL     1     149.580 166.252 170.815  0.00  0.00    +0.000 C 
ENDBRANCH   1  13
BRANCH   5  15
ATOM     15  N3  UNL     1     144.771 165.362 166.472  0.00  0.00    +0.000 N 
ATOM     16  H9  UNL     1     144.348 166.248 166.130  0.00  0.00    +0.000 HD
BRANCH  15  17
ATOM     17  C7  UNL     1     143.945 164.185 166.538  0.00  0.00    +0.000 C 
BRANCH  17  18
ATOM     18  C8  UNL     1     143.693 163.688 165.164  0.00  0.00    +0.000 A 
ATOM     19  C9  UNL     1     144.581 162.895 164.497  0.00  0.00    +0.000 A 
ATOM     20  C10 UNL     1     144.313 162.444 163.203  0.00  0.00    +0.000 A 
ATOM     21  C11 UNL     1     143.141 162.805 162.603  0.00  0.00    +0.000 A 
ATOM     22  C12 UNL     1     142.222 163.604 163.246  0.00  0.00    +0.000 A 
ATOM     23  C13 UNL     1     142.519 164.038 164.533  0.00  0.00    +0.000 A 
ENDBRANCH  17  18
ENDBRANCH  15  17
ENDBRANCH   5  15
BRANCH   8  24
ATOM     24  C15 UNL     1     150.856 165.852 165.715  0.00  0.00    +0.000 C 
BRANCH  24  25
ATOM     25  C16 UNL     1     151.450 164.519 165.357  0.00  0.00    +0.000 A 
ATOM     26  C17 UNL     1     151.315 163.440 166.202  0.00  0.00    +0.000 A 
ATOM     27  C18 UNL     1     151.873 162.234 165.850  0.00  0.00    +0.000 A 
ATOM     28  C19 UNL     1     152.563 162.118 164.656  0.00  0.00    +0.000 A 
ATOM     29  C20 UNL     1     152.693 163.206 163.819  0.00  0.00    +0.000 A 
ATOM     30  C21 UNL     1     152.134 164.413 164.168  0.00  0.00    +0.000 A 
ENDBRANCH  24  25
ENDBRANCH   8  24
TORSDOF 6
ENDMDL
MODEL 4
REMARK VINA RESULT:      -6.3      7.990     11.554
REMARK  Name = ./3D_structures\o17_MMV1579780_3D.pdb
REMARK  8 active torsions:
REMARK  status: ('A' for Active; 'I' for Inactive)
REMARK    1  A    between atoms: C1_1  and  C2_2
REMARK    2  A    between atoms: C2_2  and  C3_3
REMARK    3  A    between atoms: C2_2  and  N1_4
REMARK    4  A    between atoms: C6_8  and  N3_9
REMARK    5  A    between atoms: N3_9  and  C7_10
REMARK    6  A    between atoms: C7_10  and  C8_11
REMARK    7  A    between atoms: N5_19  and  C15_20
REMARK    8  A    between atoms: C15_20  and  C16_21
REMARK                            x       y       z     vdW  Elec       q    Type
REMARK                         _______ _______ _______ _____ _____    ______ ____
ROOT
ATOM      1  N1  UNL     1     150.207 164.960 170.731  0.00  0.00    +0.000 N 
ATOM      2  C4  UNL     1     149.147 165.795 170.648  0.00  0.00    +0.000 A 
ATOM      3  N2  UNL     1     148.191 165.181 169.951  0.00  0.00    +0.000 NA
ATOM      4  C5  UNL     1     148.598 163.956 169.571  0.00  0.00    +0.000 A 
ATOM      5  C6  UNL     1     148.034 162.926 168.855  0.00  0.00    +0.000 A 
ATOM      6  N4  UNL     1     148.759 161.814 168.666  0.00  0.00    +0.000 NA
ATOM      7  C14 UNL     1     150.005 161.654 169.136  0.00  0.00    +0.000 A 
ATOM      8  N5  UNL     1     150.743 160.434 168.902  0.00  0.00    +0.000 N 
ATOM      9  N6  UNL     1     150.546 162.665 169.833  0.00  0.00    +0.000 NA
ATOM     10  C22 UNL     1     149.884 163.830 170.074  0.00  0.00    +0.000 A 
ATOM     11  H17 UNL     1     150.289 159.665 168.354  0.00  0.00    +0.000 HD
ENDROOT
BRANCH   1  13
ATOM     12  C1  UNL     1     152.079 166.525 170.965  0.00  0.00    +0.000 C 
ATOM     13  C2  UNL     1     151.450 165.207 171.385  0.00  0.00    +0.000 C 
ATOM     14  C3  UNL     1     151.197 165.186 172.884  0.00  0.00    +0.000 C 
ENDBRANCH   1  13
BRANCH   5  15
ATOM     15  N3  UNL     1     146.716 163.087 168.353  0.00  0.00    +0.000 N 
ATOM     16  H9  UNL     1     145.944 163.239 169.033  0.00  0.00    +0.000 HD
BRANCH  15  17
ATOM     17  C7  UNL     1     146.399 163.049 166.950  0.00  0.00    +0.000 C 
BRANCH  17  18
ATOM     18  C8  UNL     1     146.089 164.422 166.482  0.00  0.00    +0.000 A 
ATOM     19  C9  UNL     1     147.057 165.356 166.260  0.00  0.00    +0.000 A 
ATOM     20  C10 UNL     1     146.731 166.641 165.819  0.00  0.00    +0.000 A 
ATOM     21  C11 UNL     1     145.420 166.958 165.609  0.00  0.00    +0.000 A 
ATOM     22  C12 UNL     1     144.416 166.039 165.823  0.00  0.00    +0.000 A 
ATOM     23  C13 UNL     1     144.773 164.770 166.262  0.00  0.00    +0.000 A 
ENDBRANCH  17  18
ENDBRANCH  15  17
ENDBRANCH   5  15
BRANCH   8  24
ATOM     24  C15 UNL     1     152.069 160.242 169.394  0.00  0.00    +0.000 C 
BRANCH  24  25
ATOM     25  C16 UNL     1     152.907 159.676 168.283  0.00  0.00    +0.000 A 
ATOM     26  C17 UNL     1     152.941 160.284 167.048  0.00  0.00    +0.000 A 
ATOM     27  C18 UNL     1     153.713 159.740 166.049  0.00  0.00    +0.000 A 
ATOM     28  C19 UNL     1     154.445 158.591 166.294  0.00  0.00    +0.000 A 
ATOM     29  C20 UNL     1     154.403 157.990 167.534  0.00  0.00    +0.000 A 
ATOM     30  C21 UNL     1     153.632 158.533 168.535  0.00  0.00    +0.000 A 
ENDBRANCH  24  25
ENDBRANCH   8  24
TORSDOF 6
ENDMDL
MODEL 5
REMARK VINA RESULT:      -6.3      1.766      2.666
REMARK  Name = ./3D_structures\o17_MMV1579780_3D.pdb
REMARK  8 active torsions:
REMARK  status: ('A' for Active; 'I' for Inactive)
REMARK    1  A    between atoms: C1_1  and  C2_2
REMARK    2  A    between atoms: C2_2  and  C3_3
REMARK    3  A    between atoms: C2_2  and  N1_4
REMARK    4  A    between atoms: C6_8  and  N3_9
REMARK    5  A    between atoms: N3_9  and  C7_10
REMARK    6  A    between atoms: C7_10  and  C8_11
REMARK    7  A    between atoms: N5_19  and  C15_20
REMARK    8  A    between atoms: C15_20  and  C16_21
REMARK                            x       y       z     vdW  Elec       q    Type
REMARK                         _______ _______ _______ _____ _____    ______ ____
ROOT
ATOM      1  N1  UNL     1     160.464 157.540 166.209  0.00  0.00    +0.000 N 
ATOM      2  C4  UNL     1     160.364 158.544 167.108  0.00  0.00    +0.000 A 
ATOM      3  N2  UNL     1     159.086 158.645 167.474  0.00  0.00    +0.000 NA
ATOM      4  C5  UNL     1     158.338 157.728 166.833  0.00  0.00    +0.000 A 
ATOM      5  C6  UNL     1     157.003 157.396 166.831  0.00  0.00    +0.000 A 
ATOM      6  N4  UNL     1     156.602 156.391 166.039  0.00  0.00    +0.000 NA
ATOM      7  C14 UNL     1     157.433 155.694 165.249  0.00  0.00    +0.000 A 
ATOM      8  N5  UNL     1     156.947 154.620 164.414  0.00  0.00    +0.000 N 
ATOM      9  N6  UNL     1     158.733 156.027 165.259  0.00  0.00    +0.000 NA
ATOM     10  C22 UNL     1     159.229 157.032 166.030  0.00  0.00    +0.000 A 
ATOM     11  H17 UNL     1     155.925 154.388 164.432  0.00  0.00    +0.000 HD
ENDROOT
BRANCH   1  13
ATOM     12  C1  UNL     1     162.088 158.015 164.436  0.00  0.00    +0.000 C 
ATOM     13  C2  UNL     1     161.645 157.084 165.553  0.00  0.00    +0.000 C 
ATOM     14  C3  UNL     1     162.735 156.947 166.604  0.00  0.00    +0.000 C 
ENDBRANCH   1  13
BRANCH   5  15
ATOM     15  N3  UNL     1     156.117 158.128 167.664  0.00  0.00    +0.000 N 
ATOM     16  H9  UNL     1     156.488 158.955 168.172  0.00  0.00    +0.000 HD
BRANCH  15  17
ATOM     17  C7  UNL     1     154.732 157.779 167.836  0.00  0.00    +0.000 C 
BRANCH  17  18
ATOM     18  C8  UNL     1     153.884 158.915 167.403  0.00  0.00    +0.000 A 
ATOM     19  C9  UNL     1     153.040 159.566 168.255  0.00  0.00    +0.000 A 
ATOM     20  C10 UNL     1     152.254 160.633 167.815  0.00  0.00    +0.000 A 
ATOM     21  C11 UNL     1     152.338 161.026 166.510  0.00  0.00    +0.000 A 
ATOM     22  C12 UNL     1     153.180 160.393 165.623  0.00  0.00    +0.000 A 
ATOM     23  C13 UNL     1     153.948 159.333 166.092  0.00  0.00    +0.000 A 
ENDBRANCH  17  18
ENDBRANCH  15  17
ENDBRANCH   5  15
BRANCH   8  24
ATOM     24  C15 UNL     1     157.812 153.865 163.566  0.00  0.00    +0.000 C 
BRANCH  24  25
ATOM     25  C16 UNL     1     157.767 152.429 164.004  0.00  0.00    +0.000 A 
ATOM     26  C17 UNL     1     156.654 151.654 163.760  0.00  0.00    +0.000 A 
ATOM     27  C18 UNL     1     156.639 150.345 164.177  0.00  0.00    +0.000 A 
ATOM     28  C19 UNL     1     157.738 149.821 164.836  0.00  0.00    +0.000 A 
ATOM     29  C20 UNL     1     158.846 150.605 165.075  0.00  0.00    +0.000 A 
ATOM     30  C21 UNL     1     158.864 151.915 164.658  0.00  0.00    +0.000 A 
ENDBRANCH  24  25
ENDBRANCH   8  24
TORSDOF 6
ENDMDL
MODEL 6
REMARK VINA RESULT:      -5.9      7.980     10.583
REMARK  Name = ./3D_structures\o17_MMV1579780_3D.pdb
REMARK  8 active torsions:
REMARK  status: ('A' for Active; 'I' for Inactive)
REMARK    1  A    between atoms: C1_1  and  C2_2
REMARK    2  A    between atoms: C2_2  and  C3_3
REMARK    3  A    between atoms: C2_2  and  N1_4
REMARK    4  A    between atoms: C6_8  and  N3_9
REMARK    5  A    between atoms: N3_9  and  C7_10
REMARK    6  A    between atoms: C7_10  and  C8_11
REMARK    7  A    between atoms: N5_19  and  C15_20
REMARK    8  A    between atoms: C15_20  and  C16_21
REMARK                            x       y       z     vdW  Elec       q    Type
REMARK                         _______ _______ _______ _____ _____    ______ ____
ROOT
ATOM      1  N1  UNL     1     152.243 165.025 164.799  0.00  0.00    +0.000 N 
ATOM      2  C4  UNL     1     151.367 166.053 164.748  0.00  0.00    +0.000 A 
ATOM      3  N2  UNL     1     150.334 165.754 165.537  0.00  0.00    +0.000 NA
ATOM      4  C5  UNL     1     150.510 164.549 166.107  0.00  0.00    +0.000 A 
ATOM      5  C6  UNL     1     149.781 163.773 166.979  0.00  0.00    +0.000 A 
ATOM      6  N4  UNL     1     150.284 162.586 167.343  0.00  0.00    +0.000 NA
ATOM      7  C14 UNL     1     151.460 162.113 166.901  0.00  0.00    +0.000 A 
ATOM      8  N5  UNL     1     151.956 160.824 167.325  0.00  0.00    +0.000 N 
ATOM      9  N6  UNL     1     152.163 162.877 166.051  0.00  0.00    +0.000 NA
ATOM     10  C22 UNL     1     151.730 164.096 165.627  0.00  0.00    +0.000 A 
ATOM     11  H17 UNL     1     151.380 160.254 167.991  0.00  0.00    +0.000 HD
ENDROOT
BRANCH   1  13
ATOM     12  C1  UNL     1     154.677 164.895 165.057  0.00  0.00    +0.000 C 
ATOM     13  C2  UNL     1     153.488 164.917 164.111  0.00  0.00    +0.000 C 
ATOM     14  C3  UNL     1     153.445 163.651 163.271  0.00  0.00    +0.000 C 
ENDBRANCH   1  13
BRANCH   5  15
ATOM     15  N3  UNL     1     148.536 164.265 167.451  0.00  0.00    +0.000 N 
ATOM     16  H9  UNL     1     148.542 165.065 168.115  0.00  0.00    +0.000 HD
BRANCH  15  17
ATOM     17  C7  UNL     1     147.270 163.709 167.054  0.00  0.00    +0.000 C 
BRANCH  17  18
ATOM     18  C8  UNL     1     146.403 164.793 166.530  0.00  0.00    +0.000 A 
ATOM     19  C9  UNL     1     146.893 166.016 166.177  0.00  0.00    +0.000 A 
ATOM     20  C10 UNL     1     146.050 167.015 165.686  0.00  0.00    +0.000 A 
ATOM     21  C11 UNL     1     144.715 166.756 165.561  0.00  0.00    +0.000 A 
ATOM     22  C12 UNL     1     144.186 165.532 165.907  0.00  0.00    +0.000 A 
ATOM     23  C13 UNL     1     145.052 164.559 166.393  0.00  0.00    +0.000 A 
ENDBRANCH  17  18
ENDBRANCH  15  17
ENDBRANCH   5  15
BRANCH   8  24
ATOM     24  C15 UNL     1     153.204 160.301 166.869  0.00  0.00    +0.000 C 
BRANCH  24  25
ATOM     25  C16 UNL     1     153.741 159.375 167.922  0.00  0.00    +0.000 A 
ATOM     26  C17 UNL     1     153.666 159.709 169.257  0.00  0.00    +0.000 A 
ATOM     27  C18 UNL     1     154.172 158.845 170.198  0.00  0.00    +0.000 A 
ATOM     28  C19 UNL     1     154.750 157.653 169.796  0.00  0.00    +0.000 A 
ATOM     29  C20 UNL     1     154.820 157.329 168.458  0.00  0.00    +0.000 A 
ATOM     30  C21 UNL     1     154.315 158.192 167.515  0.00  0.00    +0.000 A 
ENDBRANCH  24  25
ENDBRANCH   8  24
TORSDOF 6
ENDMDL
MODEL 7
REMARK VINA RESULT:      -5.9      8.054     11.372
REMARK  Name = ./3D_structures\o17_MMV1579780_3D.pdb
REMARK  8 active torsions:
REMARK  status: ('A' for Active; 'I' for Inactive)
REMARK    1  A    between atoms: C1_1  and  C2_2
REMARK    2  A    between atoms: C2_2  and  C3_3
REMARK    3  A    between atoms: C2_2  and  N1_4
REMARK    4  A    between atoms: C6_8  and  N3_9
REMARK    5  A    between atoms: N3_9  and  C7_10
REMARK    6  A    between atoms: C7_10  and  C8_11
REMARK    7  A    between atoms: N5_19  and  C15_20
REMARK    8  A    between atoms: C15_20  and  C16_21
REMARK                            x       y       z     vdW  Elec       q    Type
REMARK                         _______ _______ _______ _____ _____    ______ ____
ROOT
ATOM      1  N1  UNL     1     151.391 164.466 165.811  0.00  0.00    +0.000 N 
ATOM      2  C4  UNL     1     150.549 165.410 165.333  0.00  0.00    +0.000 A 
ATOM      3  N2  UNL     1     149.616 165.638 166.257  0.00  0.00    +0.000 NA
ATOM      4  C5  UNL     1     149.824 164.864 167.337  0.00  0.00    +0.000 A 
ATOM      5  C6  UNL     1     149.187 164.694 168.545  0.00  0.00    +0.000 A 
ATOM      6  N4  UNL     1     149.693 163.802 169.408  0.00  0.00    +0.000 NA
ATOM      7  C14 UNL     1     150.787 163.066 169.156  0.00  0.00    +0.000 A 
ATOM      8  N5  UNL     1     151.290 162.118 170.123  0.00  0.00    +0.000 N 
ATOM      9  N6  UNL     1     151.400 163.240 167.975  0.00  0.00    +0.000 NA
ATOM     10  C22 UNL     1     150.957 164.122 167.039  0.00  0.00    +0.000 A 
ATOM     11  H17 UNL     1     150.786 162.009 171.035  0.00  0.00    +0.000 HD
ENDROOT
BRANCH   1  13
ATOM     12  C1  UNL     1     152.189 162.713 164.295  0.00  0.00    +0.000 C 
ATOM     13  C2  UNL     1     152.533 163.917 165.157  0.00  0.00    +0.000 C 
ATOM     14  C3  UNL     1     153.160 165.018 164.317  0.00  0.00    +0.000 C 
ENDBRANCH   1  13
BRANCH   5  15
ATOM     15  N3  UNL     1     148.029 165.468 168.820  0.00  0.00    +0.000 N 
ATOM     16  H9  UNL     1     148.062 166.489 168.629  0.00  0.00    +0.000 HD
BRANCH  15  17
ATOM     17  C7  UNL     1     146.815 164.905 169.350  0.00  0.00    +0.000 C 
BRANCH  17  18
ATOM     18  C8  UNL     1     145.825 164.762 168.255  0.00  0.00    +0.000 A 
ATOM     19  C9  UNL     1     145.806 165.590 167.172  0.00  0.00    +0.000 A 
ATOM     20  C10 UNL     1     144.859 165.428 166.158  0.00  0.00    +0.000 A 
ATOM     21  C11 UNL     1     143.942 164.423 166.260  0.00  0.00    +0.000 A 
ATOM     22  C12 UNL     1     143.932 163.568 167.340  0.00  0.00    +0.000 A 
ATOM     23  C13 UNL     1     144.887 163.756 168.333  0.00  0.00    +0.000 A 
ENDBRANCH  17  18
ENDBRANCH  15  17
ENDBRANCH   5  15
BRANCH   8  24
ATOM     24  C15 UNL     1     152.452 161.325 169.877  0.00  0.00    +0.000 C 
BRANCH  24  25
ATOM     25  C16 UNL     1     152.068 159.877 169.988  0.00  0.00    +0.000 A 
ATOM     26  C17 UNL     1     150.821 159.513 170.447  0.00  0.00    +0.000 A 
ATOM     27  C18 UNL     1     150.501 158.180 170.543  0.00  0.00    +0.000 A 
ATOM     28  C19 UNL     1     151.431 157.222 170.181  0.00  0.00    +0.000 A 
ATOM     29  C20 UNL     1     152.676 157.597 169.724  0.00  0.00    +0.000 A 
ATOM     30  C21 UNL     1     152.999 158.930 169.626  0.00  0.00    +0.000 A 
ENDBRANCH  24  25
ENDBRANCH   8  24
TORSDOF 6
ENDMDL
MODEL 8
REMARK VINA RESULT:      -5.9      2.145      6.175
REMARK  Name = ./3D_structures\o17_MMV1579780_3D.pdb
REMARK  8 active torsions:
REMARK  status: ('A' for Active; 'I' for Inactive)
REMARK    1  A    between atoms: C1_1  and  C2_2
REMARK    2  A    between atoms: C2_2  and  C3_3
REMARK    3  A    between atoms: C2_2  and  N1_4
REMARK    4  A    between atoms: C6_8  and  N3_9
REMARK    5  A    between atoms: N3_9  and  C7_10
REMARK    6  A    between atoms: C7_10  and  C8_11
REMARK    7  A    between atoms: N5_19  and  C15_20
REMARK    8  A    between atoms: C15_20  and  C16_21
REMARK                            x       y       z     vdW  Elec       q    Type
REMARK                         _______ _______ _______ _____ _____    ______ ____
ROOT
ATOM      1  N1  UNL     1     158.113 156.078 164.639  0.00  0.00    +0.000 N 
ATOM      2  C4  UNL     1     156.808 155.760 164.795  0.00  0.00    +0.000 A 
ATOM      3  N2  UNL     1     156.381 156.315 165.929  0.00  0.00    +0.000 NA
ATOM      4  C5  UNL     1     157.378 156.992 166.527  0.00  0.00    +0.000 A 
ATOM      5  C6  UNL     1     157.491 157.730 167.683  0.00  0.00    +0.000 A 
ATOM      6  N4  UNL     1     158.680 158.280 167.969  0.00  0.00    +0.000 NA
ATOM      7  C14 UNL     1     159.764 158.148 167.189  0.00  0.00    +0.000 A 
ATOM      8  N5  UNL     1     161.022 158.761 167.546  0.00  0.00    +0.000 N 
ATOM      9  N6  UNL     1     159.642 157.426 166.064  0.00  0.00    +0.000 NA
ATOM     10  C22 UNL     1     158.475 156.832 165.694  0.00  0.00    +0.000 A 
ATOM     11  H17 UNL     1     161.081 159.318 168.431  0.00  0.00    +0.000 HD
ENDROOT
BRANCH   1  13
ATOM     12  C1  UNL     1     159.833 154.491 163.909  0.00  0.00    +0.000 C 
ATOM     13  C2  UNL     1     158.972 155.696 163.566  0.00  0.00    +0.000 C 
ATOM     14  C3  UNL     1     158.099 155.406 162.356  0.00  0.00    +0.000 C 
ENDBRANCH   1  13
BRANCH   5  15
ATOM     15  N3  UNL     1     156.350 157.875 168.514  0.00  0.00    +0.000 N 
ATOM     16  H9  UNL     1     155.540 158.417 168.151  0.00  0.00    +0.000 HD
BRANCH  15  17
ATOM     17  C7  UNL     1     156.262 157.308 169.834  0.00  0.00    +0.000 C 
BRANCH  17  18
ATOM     18  C8  UNL     1     155.798 158.350 170.782  0.00  0.00    +0.000 A 
ATOM     19  C9  UNL     1     156.415 158.578 171.978  0.00  0.00    +0.000 A 
ATOM     20  C10 UNL     1     155.953 159.567 172.849  0.00  0.00    +0.000 A 
ATOM     21  C11 UNL     1     154.867 160.313 172.491  0.00  0.00    +0.000 A 
ATOM     22  C12 UNL     1     154.220 160.110 171.292  0.00  0.00    +0.000 A 
ATOM     23  C13 UNL     1     154.704 159.118 170.447  0.00  0.00    +0.000 A 
ENDBRANCH  17  18
ENDBRANCH  15  17
ENDBRANCH   5  15
BRANCH   8  24
ATOM     24  C15 UNL     1     162.188 158.635 166.731  0.00  0.00    +0.000 C 
BRANCH  24  25
ATOM     25  C16 UNL     1     163.384 159.014 167.556  0.00  0.00    +0.000 A 
ATOM     26  C17 UNL     1     164.231 158.048 168.052  0.00  0.00    +0.000 A 
ATOM     27  C18 UNL     1     165.315 158.424 168.809  0.00  0.00    +0.000 A 
ATOM     28  C19 UNL     1     165.543 159.766 169.064  0.00  0.00    +0.000 A 
ATOM     29  C20 UNL     1     164.688 160.725 168.562  0.00  0.00    +0.000 A 
ATOM     30  C21 UNL     1     163.604 160.350 167.805  0.00  0.00    +0.000 A 
ENDBRANCH  24  25
ENDBRANCH   8  24
TORSDOF 6
ENDMDL
MODEL 9
REMARK VINA RESULT:      -5.9      7.241     10.704
REMARK  Name = ./3D_structures\o17_MMV1579780_3D.pdb
REMARK  8 active torsions:
REMARK  status: ('A' for Active; 'I' for Inactive)
REMARK    1  A    between atoms: C1_1  and  C2_2
REMARK    2  A    between atoms: C2_2  and  C3_3
REMARK    3  A    between atoms: C2_2  and  N1_4
REMARK    4  A    between atoms: C6_8  and  N3_9
REMARK    5  A    between atoms: N3_9  and  C7_10
REMARK    6  A    between atoms: C7_10  and  C8_11
REMARK    7  A    between atoms: N5_19  and  C15_20
REMARK    8  A    between atoms: C15_20  and  C16_21
REMARK                            x       y       z     vdW  Elec       q    Type
REMARK                         _______ _______ _______ _____ _____    ______ ____
ROOT
ATOM      1  N1  UNL     1     149.063 164.219 167.102  0.00  0.00    +0.000 N 
ATOM      2  C4  UNL     1     147.786 164.506 166.766  0.00  0.00    +0.000 A 
ATOM      3  N2  UNL     1     147.038 163.436 167.035  0.00  0.00    +0.000 NA
ATOM      4  C5  UNL     1     147.795 162.446 167.541  0.00  0.00    +0.000 A 
ATOM      5  C6  UNL     1     147.551 161.165 167.978  0.00  0.00    +0.000 A 
ATOM      6  N4  UNL     1     148.584 160.443 168.434  0.00  0.00    +0.000 NA
ATOM      7  C14 UNL     1     149.843 160.904 168.486  0.00  0.00    +0.000 A 
ATOM      8  N5  UNL     1     150.922 160.082 168.986  0.00  0.00    +0.000 N 
ATOM      9  N6  UNL     1     150.071 162.155 168.057  0.00  0.00    +0.000 NA
ATOM     10  C22 UNL     1     149.083 162.959 167.578  0.00  0.00    +0.000 A 
ATOM     11  H17 UNL     1     150.707 159.110 169.314  0.00  0.00    +0.000 HD
ENDROOT
BRANCH   1  13
ATOM     12  C1  UNL     1     150.470 165.487 165.546  0.00  0.00    +0.000 C 
ATOM     13  C2  UNL     1     150.200 165.073 166.984  0.00  0.00    +0.000 C 
ATOM     14  C3  UNL     1     149.956 166.292 167.858  0.00  0.00    +0.000 C 
ENDBRANCH   1  13
BRANCH   5  15
ATOM     15  N3  UNL     1     146.222 160.670 167.927  0.00  0.00    +0.000 N 
ATOM     16  H9  UNL     1     145.599 160.842 168.742  0.00  0.00    +0.000 HD
BRANCH  15  17
ATOM     17  C7  UNL     1     145.697 159.940 166.803  0.00  0.00    +0.000 C 
BRANCH  17  18
ATOM     18  C8  UNL     1     146.036 158.504 166.951  0.00  0.00    +0.000 A 
ATOM     19  C9  UNL     1     145.892 157.836 168.132  0.00  0.00    +0.000 A 
ATOM     20  C10 UNL     1     146.221 156.483 168.238  0.00  0.00    +0.000 A 
ATOM     21  C11 UNL     1     146.692 155.825 167.138  0.00  0.00    +0.000 A 
ATOM     22  C12 UNL     1     146.850 156.468 165.930  0.00  0.00    +0.000 A 
ATOM     23  C13 UNL     1     146.515 157.816 165.858  0.00  0.00    +0.000 A 
ENDBRANCH  17  18
ENDBRANCH  15  17
ENDBRANCH   5  15
BRANCH   8  24
ATOM     24  C15 UNL     1     152.268 160.551 169.051  0.00  0.00    +0.000 C 
BRANCH  24  25
ATOM     25  C16 UNL     1     153.123 159.651 168.206  0.00  0.00    +0.000 A 
ATOM     26  C17 UNL     1     153.651 158.490 168.728  0.00  0.00    +0.000 A 
ATOM     27  C18 UNL     1     154.435 157.688 167.932  0.00  0.00    +0.000 A 
ATOM     28  C19 UNL     1     154.685 158.055 166.621  0.00  0.00    +0.000 A 
ATOM     29  C20 UNL     1     154.151 159.219 166.110  0.00  0.00    +0.000 A 
ATOM     30  C21 UNL     1     153.367 160.022 166.903  0.00  0.00    +0.000 A 
ENDBRANCH  24  25
ENDBRANCH   8  24
TORSDOF 6
ENDMDL
