MODEL 1
REMARK VINA RESULT:      -5.6      0.000      0.000
REMARK  Name = ./3D_structures\o18_MMV688756_3D.pdb
REMARK  5 active torsions:
REMARK  status: ('A' for Active; 'I' for Inactive)
REMARK    1  A    between atoms: C1_1  and  C2_2
REMARK    2  A    between atoms: N1_4  and  C3_5
REMARK    3  A    between atoms: C3_5  and  C4_6
REMARK    4  A    between atoms: N2_8  and  C7_12
REMARK    5  A    between atoms: C10_15  and  N3_16
REMARK                            x       y       z     vdW  Elec       q    Type
REMARK                         _______ _______ _______ _____ _____    ______ ____
ROOT
ATOM      1  C7  UNL     1     145.751 164.941 166.912  0.00  0.00    +0.000 A 
ATOM      2  C8  UNL     1     146.900 165.024 166.219  0.00  0.00    +0.000 A 
ATOM      3  C9  UNL     1     148.115 165.134 166.826  0.00  0.00    +0.000 A 
ATOM      4  C10 UNL     1     148.193 165.167 168.248  0.00  0.00    +0.000 A 
ATOM      5  C15 UNL     1     147.033 165.084 168.949  0.00  0.00    +0.000 A 
ATOM      6  F1  UNL     1     147.119 165.124 170.324  0.00  0.00    +0.000 F 
ATOM      7  C16 UNL     1     145.811 164.973 168.325  0.00  0.00    +0.000 A 
ENDROOT
BRANCH   1  10
ATOM      8  C4  UNL     1     142.512 163.871 165.402  0.00  0.00    +0.000 C 
ATOM      9  C5  UNL     1     143.695 163.585 166.283  0.00  0.00    +0.000 C 
ATOM     10  N2  UNL     1     144.474 164.819 166.320  0.00  0.00    +0.000 N 
ATOM     11  C6  UNL     1     143.698 165.785 165.670  0.00  0.00    +0.000 C 
ATOM     12  O2  UNL     1     144.071 166.950 165.312  0.00  0.00    +0.000 OA
ATOM     13  O3  UNL     1     142.415 165.281 165.458  0.00  0.00    +0.000 OA
BRANCH   8  14
ATOM     14  C3  UNL     1     142.903 163.510 163.973  0.00  0.00    +0.000 C 
BRANCH  14  18
ATOM     15  C1  UNL     1     143.560 159.838 163.085  0.00  0.00    +0.000 C 
ATOM     16  C2  UNL     1     143.803 161.298 163.347  0.00  0.00    +0.000 C 
ATOM     17  O1  UNL     1     144.959 161.770 163.232  0.00  0.00    +0.000 OA
ATOM     18  N1  UNL     1     142.718 162.112 163.718  0.00  0.00    +0.000 N 
ATOM     19  H4  UNL     1     141.761 161.668 163.806  0.00  0.00    +0.000 HD
ENDBRANCH  14  18
ENDBRANCH   8  14
ENDBRANCH   1  10
BRANCH   4  20
ATOM     20  N3  UNL     1     149.493 165.267 168.824  0.00  0.00    +0.000 N 
ATOM     21  C11 UNL     1     150.183 166.520 168.724  0.00  0.00    +0.000 C 
ATOM     22  C12 UNL     1     150.747 167.054 169.999  0.00  0.00    +0.000 C 
ATOM     23  S1  UNL     1     150.255 165.966 171.381  0.00  0.00    +0.000 S 
ATOM     24  C13 UNL     1     150.648 164.276 170.785  0.00  0.00    +0.000 C 
ATOM     25  C14 UNL     1     150.029 164.089 169.445  0.00  0.00    +0.000 C 
ENDBRANCH   4  20
TORSDOF 4
ENDMDL
MODEL 2
REMARK VINA RESULT:      -5.6      1.581      2.161
REMARK  Name = ./3D_structures\o18_MMV688756_3D.pdb
REMARK  5 active torsions:
REMARK  status: ('A' for Active; 'I' for Inactive)
REMARK    1  A    between atoms: C1_1  and  C2_2
REMARK    2  A    between atoms: N1_4  and  C3_5
REMARK    3  A    between atoms: C3_5  and  C4_6
REMARK    4  A    between atoms: N2_8  and  C7_12
REMARK    5  A    between atoms: C10_15  and  N3_16
REMARK                            x       y       z     vdW  Elec       q    Type
REMARK                         _______ _______ _______ _____ _____    ______ ____
ROOT
ATOM      1  C7  UNL     1     145.636 165.094 166.969  0.00  0.00    +0.000 A 
ATOM      2  C8  UNL     1     145.817 165.036 168.300  0.00  0.00    +0.000 A 
ATOM      3  C9  UNL     1     147.053 164.976 168.869  0.00  0.00    +0.000 A 
ATOM      4  C10 UNL     1     148.212 164.969 168.041  0.00  0.00    +0.000 A 
ATOM      5  C15 UNL     1     148.031 165.027 166.697  0.00  0.00    +0.000 A 
ATOM      6  F1  UNL     1     149.158 165.012 165.904  0.00  0.00    +0.000 F 
ATOM      7  C16 UNL     1     146.777 165.088 166.133  0.00  0.00    +0.000 A 
ENDROOT
BRANCH   1  10
ATOM      8  C4  UNL     1     142.302 164.523 165.397  0.00  0.00    +0.000 C 
ATOM      9  C5  UNL     1     143.397 164.078 166.326  0.00  0.00    +0.000 C 
ATOM     10  N2  UNL     1     144.372 165.164 166.342  0.00  0.00    +0.000 N 
ATOM     11  C6  UNL     1     143.788 166.219 165.631  0.00  0.00    +0.000 C 
ATOM     12  O2  UNL     1     144.362 167.287 165.242  0.00  0.00    +0.000 OA
ATOM     13  O3  UNL     1     142.444 165.930 165.398  0.00  0.00    +0.000 OA
BRANCH   8  14
ATOM     14  C3  UNL     1     142.661 164.041 163.996  0.00  0.00    +0.000 C 
BRANCH  14  18
ATOM     15  C1  UNL     1     144.568 160.884 162.945  0.00  0.00    +0.000 C 
ATOM     16  C2  UNL     1     143.835 162.194 162.855  0.00  0.00    +0.000 C 
ATOM     17  O1  UNL     1     143.649 162.730 161.736  0.00  0.00    +0.000 OA
ATOM     18  N1  UNL     1     143.368 162.795 164.037  0.00  0.00    +0.000 N 
ATOM     19  H4  UNL     1     143.553 162.308 164.958  0.00  0.00    +0.000 HD
ENDBRANCH  14  18
ENDBRANCH   8  14
ENDBRANCH   1  10
BRANCH   4  20
ATOM     20  N3  UNL     1     149.477 164.920 168.695  0.00  0.00    +0.000 N 
ATOM     21  C11 UNL     1     150.114 163.644 168.844  0.00  0.00    +0.000 C 
ATOM     22  C12 UNL     1     151.540 163.576 168.406  0.00  0.00    +0.000 C 
ATOM     23  S1  UNL     1     152.023 165.173 167.665  0.00  0.00    +0.000 S 
ATOM     24  C13 UNL     1     151.443 166.425 168.875  0.00  0.00    +0.000 C 
ATOM     25  C14 UNL     1     150.013 166.160 169.183  0.00  0.00    +0.000 C 
ENDBRANCH   4  20
TORSDOF 4
ENDMDL
MODEL 3
REMARK VINA RESULT:      -5.5      1.547      2.216
REMARK  Name = ./3D_structures\o18_MMV688756_3D.pdb
REMARK  5 active torsions:
REMARK  status: ('A' for Active; 'I' for Inactive)
REMARK    1  A    between atoms: C1_1  and  C2_2
REMARK    2  A    between atoms: N1_4  and  C3_5
REMARK    3  A    between atoms: C3_5  and  C4_6
REMARK    4  A    between atoms: N2_8  and  C7_12
REMARK    5  A    between atoms: C10_15  and  N3_16
REMARK                            x       y       z     vdW  Elec       q    Type
REMARK                         _______ _______ _______ _____ _____    ______ ____
ROOT
ATOM      1  C7  UNL     1     146.508 165.092 167.990  0.00  0.00    +0.000 A 
ATOM      2  C8  UNL     1     146.339 165.134 169.323  0.00  0.00    +0.000 A 
ATOM      3  C9  UNL     1     147.379 165.289 170.189  0.00  0.00    +0.000 A 
ATOM      4  C10 UNL     1     148.706 165.410 169.683  0.00  0.00    +0.000 A 
ATOM      5  C15 UNL     1     148.878 165.366 168.337  0.00  0.00    +0.000 A 
ATOM      6  F1  UNL     1     150.166 165.475 167.859  0.00  0.00    +0.000 F 
ATOM      7  C16 UNL     1     147.819 165.210 167.472  0.00  0.00    +0.000 A 
ENDROOT
BRANCH   1  10
ATOM      8  C4  UNL     1     143.784 163.952 165.711  0.00  0.00    +0.000 C 
ATOM      9  C5  UNL     1     144.632 163.740 166.933  0.00  0.00    +0.000 C 
ATOM     10  N2  UNL     1     145.455 164.940 167.060  0.00  0.00    +0.000 N 
ATOM     11  C6  UNL     1     144.977 165.840 166.101  0.00  0.00    +0.000 C 
ATOM     12  O2  UNL     1     145.524 166.932 165.740  0.00  0.00    +0.000 OA
ATOM     13  O3  UNL     1     143.779 165.359 165.574  0.00  0.00    +0.000 OA
BRANCH   8  14
ATOM     14  C3  UNL     1     144.548 163.392 164.516  0.00  0.00    +0.000 C 
BRANCH  14  18
ATOM     15  C1  UNL     1     143.092 161.015 161.882  0.00  0.00    +0.000 C 
ATOM     16  C2  UNL     1     144.052 161.624 162.866  0.00  0.00    +0.000 C 
ATOM     17  O1  UNL     1     145.179 161.103 163.045  0.00  0.00    +0.000 OA
ATOM     18  N1  UNL     1     143.663 162.776 163.571  0.00  0.00    +0.000 N 
ATOM     19  H4  UNL     1     142.700 163.178 163.391  0.00  0.00    +0.000 HD
ENDBRANCH  14  18
ENDBRANCH   8  14
ENDBRANCH   1  10
BRANCH   4  20
ATOM     20  N3  UNL     1     149.750 165.584 170.637  0.00  0.00    +0.000 N 
ATOM     21  C11 UNL     1     150.538 164.441 170.997  0.00  0.00    +0.000 C 
ATOM     22  C12 UNL     1     152.018 164.629 170.936  0.00  0.00    +0.000 C 
ATOM     23  S1  UNL     1     152.391 166.289 170.273  0.00  0.00    +0.000 S 
ATOM     24  C13 UNL     1     151.314 167.414 171.243  0.00  0.00    +0.000 C 
ATOM     25  C14 UNL     1     149.920 166.898 171.191  0.00  0.00    +0.000 C 
ENDBRANCH   4  20
TORSDOF 4
ENDMDL
MODEL 4
REMARK VINA RESULT:      -5.4      7.618     10.888
REMARK  Name = ./3D_structures\o18_MMV688756_3D.pdb
REMARK  5 active torsions:
REMARK  status: ('A' for Active; 'I' for Inactive)
REMARK    1  A    between atoms: C1_1  and  C2_2
REMARK    2  A    between atoms: N1_4  and  C3_5
REMARK    3  A    between atoms: C3_5  and  C4_6
REMARK    4  A    between atoms: N2_8  and  C7_12
REMARK    5  A    between atoms: C10_15  and  N3_16
REMARK                            x       y       z     vdW  Elec       q    Type
REMARK                         _______ _______ _______ _____ _____    ______ ____
ROOT
ATOM      1  C7  UNL     1     153.574 160.079 166.714  0.00  0.00    +0.000 A 
ATOM      2  C8  UNL     1     152.921 160.236 165.549  0.00  0.00    +0.000 A 
ATOM      3  C9  UNL     1     152.251 161.379 165.234  0.00  0.00    +0.000 A 
ATOM      4  C10 UNL     1     152.225 162.460 166.161  0.00  0.00    +0.000 A 
ATOM      5  C15 UNL     1     152.883 162.303 167.338  0.00  0.00    +0.000 A 
ATOM      6  F1  UNL     1     152.846 163.351 168.231  0.00  0.00    +0.000 F 
ATOM      7  C16 UNL     1     153.558 161.143 167.645  0.00  0.00    +0.000 A 
ENDROOT
BRANCH   1  10
ATOM      8  C4  UNL     1     155.171 157.136 168.359  0.00  0.00    +0.000 C 
ATOM      9  C5  UNL     1     154.082 158.171 168.315  0.00  0.00    +0.000 C 
ATOM     10  N2  UNL     1     154.286 158.913 167.074  0.00  0.00    +0.000 N 
ATOM     11  C6  UNL     1     155.292 158.232 166.378  0.00  0.00    +0.000 C 
ATOM     12  O2  UNL     1     155.909 158.637 165.340  0.00  0.00    +0.000 OA
ATOM     13  O3  UNL     1     155.535 157.007 166.998  0.00  0.00    +0.000 OA
BRANCH   8  14
ATOM     14  C3  UNL     1     156.364 157.752 169.081  0.00  0.00    +0.000 C 
BRANCH  14  18
ATOM     15  C1  UNL     1     156.343 159.474 172.508  0.00  0.00    +0.000 C 
ATOM     16  C2  UNL     1     156.822 158.689 171.319  0.00  0.00    +0.000 C 
ATOM     17  O1  UNL     1     157.984 158.217 171.309  0.00  0.00    +0.000 OA
ATOM     18  N1  UNL     1     155.950 158.498 170.234  0.00  0.00    +0.000 N 
ATOM     19  H4  UNL     1     154.980 158.919 170.285  0.00  0.00    +0.000 HD
ENDBRANCH  14  18
ENDBRANCH   8  14
ENDBRANCH   1  10
BRANCH   4  20
ATOM     20  N3  UNL     1     151.520 163.635 165.768  0.00  0.00    +0.000 N 
ATOM     21  C11 UNL     1     150.433 164.080 166.590  0.00  0.00    +0.000 C 
ATOM     22  C12 UNL     1     150.462 165.522 166.978  0.00  0.00    +0.000 C 
ATOM     23  S1  UNL     1     152.004 166.283 166.366  0.00  0.00    +0.000 S 
ATOM     24  C13 UNL     1     152.104 165.754 164.613  0.00  0.00    +0.000 C 
ATOM     25  C14 UNL     1     151.938 164.276 164.553  0.00  0.00    +0.000 C 
ENDBRANCH   4  20
TORSDOF 4
ENDMDL
MODEL 5
REMARK VINA RESULT:      -5.3      6.409     10.007
REMARK  Name = ./3D_structures\o18_MMV688756_3D.pdb
REMARK  5 active torsions:
REMARK  status: ('A' for Active; 'I' for Inactive)
REMARK    1  A    between atoms: C1_1  and  C2_2
REMARK    2  A    between atoms: N1_4  and  C3_5
REMARK    3  A    between atoms: C3_5  and  C4_6
REMARK    4  A    between atoms: N2_8  and  C7_12
REMARK    5  A    between atoms: C10_15  and  N3_16
REMARK                            x       y       z     vdW  Elec       q    Type
REMARK                         _______ _______ _______ _____ _____    ______ ____
ROOT
ATOM      1  C7  UNL     1     151.583 162.478 170.967  0.00  0.00    +0.000 A 
ATOM      2  C8  UNL     1     150.761 162.049 169.994  0.00  0.00    +0.000 A 
ATOM      3  C9  UNL     1     149.789 162.837 169.455  0.00  0.00    +0.000 A 
ATOM      4  C10 UNL     1     149.618 164.170 169.929  0.00  0.00    +0.000 A 
ATOM      5  C15 UNL     1     150.447 164.604 170.912  0.00  0.00    +0.000 A 
ATOM      6  F1  UNL     1     150.268 165.892 171.369  0.00  0.00    +0.000 F 
ATOM      7  C16 UNL     1     151.426 163.798 171.448  0.00  0.00    +0.000 A 
ENDROOT
BRANCH   1  10
ATOM      8  C4  UNL     1     154.710 160.684 171.925  0.00  0.00    +0.000 C 
ATOM      9  C5  UNL     1     154.026 161.831 171.235  0.00  0.00    +0.000 C 
ATOM     10  N2  UNL     1     152.606 161.694 171.546  0.00  0.00    +0.000 N 
ATOM     11  C6  UNL     1     152.514 160.666 172.491  0.00  0.00    +0.000 C 
ATOM     12  O2  UNL     1     151.450 160.094 172.895  0.00  0.00    +0.000 OA
ATOM     13  O3  UNL     1     153.792 160.342 172.946  0.00  0.00    +0.000 OA
BRANCH   8  14
ATOM     14  C3  UNL     1     154.746 159.514 170.949  0.00  0.00    +0.000 C 
BRANCH  14  18
ATOM     15  C1  UNL     1     158.336 158.409 170.176  0.00  0.00    +0.000 C 
ATOM     16  C2  UNL     1     156.997 158.506 170.853  0.00  0.00    +0.000 C 
ATOM     17  O1  UNL     1     156.758 157.807 171.867  0.00  0.00    +0.000 OA
ATOM     18  N1  UNL     1     156.034 159.387 170.333  0.00  0.00    +0.000 N 
ATOM     19  H4  UNL     1     156.280 159.953 169.473  0.00  0.00    +0.000 HD
ENDBRANCH  14  18
ENDBRANCH   8  14
ENDBRANCH   1  10
BRANCH   4  20
ATOM     20  N3  UNL     1     148.595 164.950 169.316  0.00  0.00    +0.000 N 
ATOM     21  C11 UNL     1     148.863 165.531 168.032  0.00  0.00    +0.000 C 
ATOM     22  C12 UNL     1     147.825 165.295 166.984  0.00  0.00    +0.000 C 
ATOM     23  S1  UNL     1     146.536 164.185 167.648  0.00  0.00    +0.000 S 
ATOM     24  C13 UNL     1     146.113 164.910 169.279  0.00  0.00    +0.000 C 
ATOM     25  C14 UNL     1     147.371 165.118 170.046  0.00  0.00    +0.000 C 
ENDBRANCH   4  20
TORSDOF 4
ENDMDL
MODEL 6
REMARK VINA RESULT:      -5.2     12.997     14.959
REMARK  Name = ./3D_structures\o18_MMV688756_3D.pdb
REMARK  5 active torsions:
REMARK  status: ('A' for Active; 'I' for Inactive)
REMARK    1  A    between atoms: C1_1  and  C2_2
REMARK    2  A    between atoms: N1_4  and  C3_5
REMARK    3  A    between atoms: C3_5  and  C4_6
REMARK    4  A    between atoms: N2_8  and  C7_12
REMARK    5  A    between atoms: C10_15  and  N3_16
REMARK                            x       y       z     vdW  Elec       q    Type
REMARK                         _______ _______ _______ _____ _____    ______ ____
ROOT
ATOM      1  C7  UNL     1     158.344 156.108 165.170  0.00  0.00    +0.000 A 
ATOM      2  C8  UNL     1     159.313 156.972 165.519  0.00  0.00    +0.000 A 
ATOM      3  C9  UNL     1     159.186 157.831 166.569  0.00  0.00    +0.000 A 
ATOM      4  C10 UNL     1     157.987 157.831 167.339  0.00  0.00    +0.000 A 
ATOM      5  C15 UNL     1     157.008 156.959 166.987  0.00  0.00    +0.000 A 
ATOM      6  F1  UNL     1     155.849 156.972 167.733  0.00  0.00    +0.000 F 
ATOM      7  C16 UNL     1     157.148 156.096 165.924  0.00  0.00    +0.000 A 
ENDROOT
BRANCH   1  10
ATOM      8  C4  UNL     1     157.858 153.849 162.242  0.00  0.00    +0.000 C 
ATOM      9  C5  UNL     1     157.431 155.041 163.052  0.00  0.00    +0.000 C 
ATOM     10  N2  UNL     1     158.442 155.198 164.094  0.00  0.00    +0.000 N 
ATOM     11  C6  UNL     1     159.460 154.288 163.786  0.00  0.00    +0.000 C 
ATOM     12  O2  UNL     1     160.440 153.960 164.529  0.00  0.00    +0.000 OA
ATOM     13  O3  UNL     1     159.245 153.770 162.509  0.00  0.00    +0.000 OA
BRANCH   8  14
ATOM     14  C3  UNL     1     157.215 152.615 162.864  0.00  0.00    +0.000 C 
BRANCH  14  18
ATOM     15  C1  UNL     1     154.618 150.258 161.311  0.00  0.00    +0.000 C 
ATOM     16  C2  UNL     1     155.695 150.778 162.222  0.00  0.00    +0.000 C 
ATOM     17  O1  UNL     1     156.142 150.051 163.142  0.00  0.00    +0.000 OA
ATOM     18  N1  UNL     1     156.186 152.080 162.022  0.00  0.00    +0.000 N 
ATOM     19  H4  UNL     1     155.775 152.659 161.236  0.00  0.00    +0.000 HD
ENDBRANCH  14  18
ENDBRANCH   8  14
ENDBRANCH   1  10
BRANCH   4  20
ATOM     20  N3  UNL     1     157.920 158.741 168.434  0.00  0.00    +0.000 N 
ATOM     21  C11 UNL     1     157.265 160.001 168.229  0.00  0.00    +0.000 C 
ATOM     22  C12 UNL     1     156.237 160.370 169.247  0.00  0.00    +0.000 C 
ATOM     23  S1  UNL     1     156.026 158.990 170.424  0.00  0.00    +0.000 S 
ATOM     24  C13 UNL     1     157.739 158.540 170.901  0.00  0.00    +0.000 C 
ATOM     25  C14 UNL     1     158.539 158.335 169.664  0.00  0.00    +0.000 C 
ENDBRANCH   4  20
TORSDOF 4
ENDMDL
MODEL 7
REMARK VINA RESULT:      -5.2     14.028     16.641
REMARK  Name = ./3D_structures\o18_MMV688756_3D.pdb
REMARK  5 active torsions:
REMARK  status: ('A' for Active; 'I' for Inactive)
REMARK    1  A    between atoms: C1_1  and  C2_2
REMARK    2  A    between atoms: N1_4  and  C3_5
REMARK    3  A    between atoms: C3_5  and  C4_6
REMARK    4  A    between atoms: N2_8  and  C7_12
REMARK    5  A    between atoms: C10_15  and  N3_16
REMARK                            x       y       z     vdW  Elec       q    Type
REMARK                         _______ _______ _______ _____ _____    ______ ____
ROOT
ATOM      1  C7  UNL     1     157.824 155.757 164.601  0.00  0.00    +0.000 A 
ATOM      2  C8  UNL     1     157.643 155.820 163.270  0.00  0.00    +0.000 A 
ATOM      3  C9  UNL     1     157.880 154.761 162.448  0.00  0.00    +0.000 A 
ATOM      4  C10 UNL     1     158.339 153.529 162.997  0.00  0.00    +0.000 A 
ATOM      5  C15 UNL     1     158.523 153.464 164.341  0.00  0.00    +0.000 A 
ATOM      6  F1  UNL     1     158.975 152.271 164.862  0.00  0.00    +0.000 F 
ATOM      7  C16 UNL     1     158.279 154.542 165.162  0.00  0.00    +0.000 A 
ENDROOT
BRANCH   1  10
ATOM      8  C4  UNL     1     157.922 158.504 167.123  0.00  0.00    +0.000 C 
ATOM      9  C5  UNL     1     158.628 157.613 166.140  0.00  0.00    +0.000 C 
ATOM     10  N2  UNL     1     157.583 156.831 165.487  0.00  0.00    +0.000 N 
ATOM     11  C6  UNL     1     156.367 157.368 165.926  0.00  0.00    +0.000 C 
ATOM     12  O2  UNL     1     155.207 156.872 165.753  0.00  0.00    +0.000 OA
ATOM     13  O3  UNL     1     156.608 158.563 166.602  0.00  0.00    +0.000 OA
BRANCH   8  14
ATOM     14  C3  UNL     1     157.841 157.756 168.448  0.00  0.00    +0.000 C 
BRANCH  14  18
ATOM     15  C1  UNL     1     156.426 159.333 171.645  0.00  0.00    +0.000 C 
ATOM     16  C2  UNL     1     157.369 158.631 170.708  0.00  0.00    +0.000 C 
ATOM     17  O1  UNL     1     158.486 158.238 171.123  0.00  0.00    +0.000 OA
ATOM     18  N1  UNL     1     156.975 158.424 169.375  0.00  0.00    +0.000 N 
ATOM     19  H4  UNL     1     156.025 158.777 169.069  0.00  0.00    +0.000 HD
ENDBRANCH  14  18
ENDBRANCH   8  14
ENDBRANCH   1  10
BRANCH   4  20
ATOM     20  N3  UNL     1     158.555 152.453 162.088  0.00  0.00    +0.000 N 
ATOM     21  C11 UNL     1     159.892 152.208 161.632  0.00  0.00    +0.000 C 
ATOM     22  C12 UNL     1     160.366 150.797 161.743  0.00  0.00    +0.000 C 
ATOM     23  S1  UNL     1     159.090 149.792 162.578  0.00  0.00    +0.000 S 
ATOM     24  C13 UNL     1     157.536 150.222 161.704  0.00  0.00    +0.000 C 
ATOM     25  C14 UNL     1     157.403 151.704 161.673  0.00  0.00    +0.000 C 
ENDBRANCH   4  20
TORSDOF 4
ENDMDL
MODEL 8
REMARK VINA RESULT:      -5.2      6.345      9.665
REMARK  Name = ./3D_structures\o18_MMV688756_3D.pdb
REMARK  5 active torsions:
REMARK  status: ('A' for Active; 'I' for Inactive)
REMARK    1  A    between atoms: C1_1  and  C2_2
REMARK    2  A    between atoms: N1_4  and  C3_5
REMARK    3  A    between atoms: C3_5  and  C4_6
REMARK    4  A    between atoms: N2_8  and  C7_12
REMARK    5  A    between atoms: C10_15  and  N3_16
REMARK                            x       y       z     vdW  Elec       q    Type
REMARK                         _______ _______ _______ _____ _____    ______ ____
ROOT
ATOM      1  C7  UNL     1     150.938 160.886 168.793  0.00  0.00    +0.000 A 
ATOM      2  C8  UNL     1     149.930 160.789 167.909  0.00  0.00    +0.000 A 
ATOM      3  C9  UNL     1     148.920 161.701 167.846  0.00  0.00    +0.000 A 
ATOM      4  C10 UNL     1     148.911 162.807 168.745  0.00  0.00    +0.000 A 
ATOM      5  C15 UNL     1     149.928 162.905 169.639  0.00  0.00    +0.000 A 
ATOM      6  F1  UNL     1     149.906 163.974 170.509  0.00  0.00    +0.000 F 
ATOM      7  C16 UNL     1     150.943 161.977 169.692  0.00  0.00    +0.000 A 
ENDROOT
BRANCH   1  10
ATOM      8  C4  UNL     1     153.504 158.352 169.745  0.00  0.00    +0.000 C 
ATOM      9  C5  UNL     1     152.147 158.967 169.940  0.00  0.00    +0.000 C 
ATOM     10  N2  UNL     1     152.006 159.965 168.884  0.00  0.00    +0.000 N 
ATOM     11  C6  UNL     1     153.111 159.797 168.043  0.00  0.00    +0.000 C 
ATOM     12  O2  UNL     1     153.483 160.577 167.107  0.00  0.00    +0.000 OA
ATOM     13  O3  UNL     1     153.775 158.619 168.383  0.00  0.00    +0.000 OA
BRANCH   8  14
ATOM     14  C3  UNL     1     154.501 159.165 170.564  0.00  0.00    +0.000 C 
BRANCH  14  18
ATOM     15  C1  UNL     1     158.223 158.330 170.164  0.00  0.00    +0.000 C 
ATOM     16  C2  UNL     1     156.845 158.416 170.760  0.00  0.00    +0.000 C 
ATOM     17  O1  UNL     1     156.622 157.923 171.892  0.00  0.00    +0.000 OA
ATOM     18  N1  UNL     1     155.827 159.056 170.032  0.00  0.00    +0.000 N 
ATOM     19  H4  UNL     1     156.062 159.453 169.079  0.00  0.00    +0.000 HD
ENDBRANCH  14  18
ENDBRANCH   8  14
ENDBRANCH   1  10
BRANCH   4  20
ATOM     20  N3  UNL     1     147.837 163.735 168.620  0.00  0.00    +0.000 N 
ATOM     21  C11 UNL     1     148.006 164.854 167.739  0.00  0.00    +0.000 C 
ATOM     22  C12 UNL     1     146.901 165.082 166.761  0.00  0.00    +0.000 C 
ATOM     23  S1  UNL     1     145.677 163.735 166.905  0.00  0.00    +0.000 S 
ATOM     24  C13 UNL     1     145.359 163.606 168.707  0.00  0.00    +0.000 C 
ATOM     25  C14 UNL     1     146.664 163.492 169.412  0.00  0.00    +0.000 C 
ENDBRANCH   4  20
TORSDOF 4
ENDMDL
MODEL 9
REMARK VINA RESULT:      -5.1      5.863      8.939
REMARK  Name = ./3D_structures\o18_MMV688756_3D.pdb
REMARK  5 active torsions:
REMARK  status: ('A' for Active; 'I' for Inactive)
REMARK    1  A    between atoms: C1_1  and  C2_2
REMARK    2  A    between atoms: N1_4  and  C3_5
REMARK    3  A    between atoms: C3_5  and  C4_6
REMARK    4  A    between atoms: N2_8  and  C7_12
REMARK    5  A    between atoms: C10_15  and  N3_16
REMARK                            x       y       z     vdW  Elec       q    Type
REMARK                         _______ _______ _______ _____ _____    ______ ____
ROOT
ATOM      1  C7  UNL     1     150.141 161.708 169.353  0.00  0.00    +0.000 A 
ATOM      2  C8  UNL     1     149.287 161.213 168.439  0.00  0.00    +0.000 A 
ATOM      3  C9  UNL     1     148.211 161.915 167.986  0.00  0.00    +0.000 A 
ATOM      4  C10 UNL     1     147.960 163.224 168.490  0.00  0.00    +0.000 A 
ATOM      5  C15 UNL     1     148.821 163.724 169.413  0.00  0.00    +0.000 A 
ATOM      6  F1  UNL     1     148.565 164.988 169.900  0.00  0.00    +0.000 F 
ATOM      7  C16 UNL     1     149.905 163.005 169.863  0.00  0.00    +0.000 A 
ENDROOT
BRANCH   1  10
ATOM      8  C4  UNL     1     153.500 160.277 170.115  0.00  0.00    +0.000 C 
ATOM      9  C5  UNL     1     152.654 161.389 169.563  0.00  0.00    +0.000 C 
ATOM     10  N2  UNL     1     151.271 161.014 169.842  0.00  0.00    +0.000 N 
ATOM     11  C6  UNL     1     151.335 159.877 170.655  0.00  0.00    +0.000 C 
ATOM     12  O2  UNL     1     150.367 159.113 170.976  0.00  0.00    +0.000 OA
ATOM     13  O3  UNL     1     152.649 159.686 171.078  0.00  0.00    +0.000 OA
BRANCH   8  14
ATOM     14  C3  UNL     1     153.696 159.251 169.005  0.00  0.00    +0.000 C 
BRANCH  14  18
ATOM     15  C1  UNL     1     156.714 156.987 168.317  0.00  0.00    +0.000 C 
ATOM     16  C2  UNL     1     155.353 157.613 168.190  0.00  0.00    +0.000 C 
ATOM     17  O1  UNL     1     154.567 157.223 167.293  0.00  0.00    +0.000 OA
ATOM     18  N1  UNL     1     154.985 158.630 169.088  0.00  0.00    +0.000 N 
ATOM     19  H4  UNL     1     155.683 158.929 169.825  0.00  0.00    +0.000 HD
ENDBRANCH  14  18
ENDBRANCH   8  14
ENDBRANCH   1  10
BRANCH   4  20
ATOM     20  N3  UNL     1     146.828 163.914 167.967  0.00  0.00    +0.000 N 
ATOM     21  C11 UNL     1     147.001 164.697 166.777  0.00  0.00    +0.000 C 
ATOM     22  C12 UNL     1     146.011 164.449 165.688  0.00  0.00    +0.000 C 
ATOM     23  S1  UNL     1     144.909 163.076 166.172  0.00  0.00    +0.000 S 
ATOM     24  C13 UNL     1     144.382 163.501 167.877  0.00  0.00    +0.000 C 
ATOM     25  C14 UNL     1     145.594 163.793 168.689  0.00  0.00    +0.000 C 
ENDBRANCH   4  20
TORSDOF 4
ENDMDL
