MODEL 1
REMARK VINA RESULT:      -5.5      0.000      0.000
REMARK  Name = ./3D_structures\o19_MMV1578897_3D.pdb
REMARK  4 active torsions:
REMARK  status: ('A' for Active; 'I' for Inactive)
REMARK    1  A    between atoms: C1_1  and  C2_2
REMARK    2  A    between atoms: C5_5  and  N1_6
REMARK    3  A    between atoms: C6_7  and  C7_9
REMARK    4  A    between atoms: C12_15  and  O2_16
REMARK                            x       y       z     vdW  Elec       q    Type
REMARK                         _______ _______ _______ _____ _____    ______ ____
ROOT
ATOM      1  N1  UNL     1     150.056 165.263 165.385  0.00  0.00    +0.000 N 
ATOM      2  C6  UNL     1     149.558 164.786 166.616  0.00  0.00    +0.000 C 
ATOM      3  O1  UNL     1     150.393 164.330 167.434  0.00  0.00    +0.000 OA
ATOM      4  H6  UNL     1     149.324 165.639 164.703  0.00  0.00    +0.000 HD
ENDROOT
BRANCH   1   9
ATOM      5  C1  UNL     1     155.457 165.276 163.690  0.00  0.00    +0.000 C 
ATOM      6  C2  UNL     1     154.037 165.240 164.128  0.00  0.00    +0.000 A 
ATOM      7  C3  UNL     1     153.230 164.161 163.886  0.00  0.00    +0.000 A 
ATOM      8  C4  UNL     1     151.932 164.175 164.309  0.00  0.00    +0.000 A 
ATOM      9  C5  UNL     1     151.409 165.284 164.990  0.00  0.00    +0.000 A 
ATOM     10  C13 UNL     1     152.225 166.344 165.221  0.00  0.00    +0.000 A 
ATOM     11  C14 UNL     1     153.544 166.331 164.792  0.00  0.00    +0.000 A 
ENDBRANCH   1   9
BRANCH   2  12
ATOM     12  C7  UNL     1     148.109 164.811 166.958  0.00  0.00    +0.000 A 
ATOM     13  C8  UNL     1     147.564 163.773 167.685  0.00  0.00    +0.000 A 
ATOM     14  C9  UNL     1     146.217 163.733 168.040  0.00  0.00    +0.000 A 
ATOM     15 CL1  UNL     1     145.587 162.391 168.962  0.00  0.00    +0.000 Cl
ATOM     16  C10 UNL     1     145.445 164.785 167.627  0.00  0.00    +0.000 A 
ATOM     17  C11 UNL     1     145.971 165.818 166.907  0.00  0.00    +0.000 A 
ATOM     18  C12 UNL     1     147.340 165.871 166.541  0.00  0.00    +0.000 A 
BRANCH  18  19
ATOM     19  O2  UNL     1     147.766 166.951 165.819  0.00  0.00    +0.000 OA
ATOM     20  H10 UNL     1     148.400 167.624 166.060  0.00  0.00    +0.000 HD
ENDBRANCH  18  19
ENDBRANCH   2  12
TORSDOF 3
ENDMDL
MODEL 2
REMARK VINA RESULT:      -5.5      1.802      2.198
REMARK  Name = ./3D_structures\o19_MMV1578897_3D.pdb
REMARK  4 active torsions:
REMARK  status: ('A' for Active; 'I' for Inactive)
REMARK    1  A    between atoms: C1_1  and  C2_2
REMARK    2  A    between atoms: C5_5  and  N1_6
REMARK    3  A    between atoms: C6_7  and  C7_9
REMARK    4  A    between atoms: C12_15  and  O2_16
REMARK                            x       y       z     vdW  Elec       q    Type
REMARK                         _______ _______ _______ _____ _____    ______ ____
ROOT
ATOM      1  N1  UNL     1     150.219 165.523 165.113  0.00  0.00    +0.000 N 
ATOM      2  C6  UNL     1     149.601 165.116 166.314  0.00  0.00    +0.000 C 
ATOM      3  O1  UNL     1     150.350 164.718 167.238  0.00  0.00    +0.000 OA
ATOM      4  H6  UNL     1     149.559 165.851 164.339  0.00  0.00    +0.000 HD
ENDROOT
BRANCH   1   9
ATOM      5  C1  UNL     1     155.763 165.493 163.970  0.00  0.00    +0.000 C 
ATOM      6  C2  UNL     1     154.306 165.468 164.262  0.00  0.00    +0.000 A 
ATOM      7  C3  UNL     1     153.519 164.395 163.943  0.00  0.00    +0.000 A 
ATOM      8  C4  UNL     1     152.186 164.420 164.233  0.00  0.00    +0.000 A 
ATOM      9  C5  UNL     1     151.606 165.534 164.856  0.00  0.00    +0.000 A 
ATOM     10  C13 UNL     1     152.401 166.588 165.165  0.00  0.00    +0.000 A 
ATOM     11  C14 UNL     1     153.757 166.565 164.872  0.00  0.00    +0.000 A 
ENDBRANCH   1   9
BRANCH   2  12
ATOM     12  C7  UNL     1     148.125 165.148 166.505  0.00  0.00    +0.000 A 
ATOM     13  C8  UNL     1     147.411 166.259 166.104  0.00  0.00    +0.000 A 
ATOM     14  C9  UNL     1     146.029 166.356 166.253  0.00  0.00    +0.000 A 
ATOM     15 CL1  UNL     1     145.183 167.789 165.726  0.00  0.00    +0.000 Cl
ATOM     16  C10 UNL     1     145.400 165.284 166.825  0.00  0.00    +0.000 A 
ATOM     17  C11 UNL     1     146.092 164.179 167.226  0.00  0.00    +0.000 A 
ATOM     18  C12 UNL     1     147.499 164.067 167.079  0.00  0.00    +0.000 A 
BRANCH  18  19
ATOM     19  O2  UNL     1     148.097 162.917 167.514  0.00  0.00    +0.000 OA
ATOM     20  H10 UNL     1     148.405 162.170 167.005  0.00  0.00    +0.000 HD
ENDBRANCH  18  19
ENDBRANCH   2  12
TORSDOF 3
ENDMDL
MODEL 3
REMARK VINA RESULT:      -5.4     10.943     12.390
REMARK  Name = ./3D_structures\o19_MMV1578897_3D.pdb
REMARK  4 active torsions:
REMARK  status: ('A' for Active; 'I' for Inactive)
REMARK    1  A    between atoms: C1_1  and  C2_2
REMARK    2  A    between atoms: C5_5  and  N1_6
REMARK    3  A    between atoms: C6_7  and  C7_9
REMARK    4  A    between atoms: C12_15  and  O2_16
REMARK                            x       y       z     vdW  Elec       q    Type
REMARK                         _______ _______ _______ _____ _____    ______ ____
ROOT
ATOM      1  N1  UNL     1     157.891 157.970 168.851  0.00  0.00    +0.000 N 
ATOM      2  C6  UNL     1     157.223 157.919 167.609  0.00  0.00    +0.000 C 
ATOM      3  O1  UNL     1     156.123 158.516 167.525  0.00  0.00    +0.000 OA
ATOM      4  H6  UNL     1     158.821 157.447 168.899  0.00  0.00    +0.000 HD
ENDROOT
BRANCH   1   9
ATOM      5  C1  UNL     1     156.069 160.771 173.420  0.00  0.00    +0.000 C 
ATOM      6  C2  UNL     1     156.566 160.062 172.212  0.00  0.00    +0.000 A 
ATOM      7  C3  UNL     1     157.292 160.700 171.242  0.00  0.00    +0.000 A 
ATOM      8  C4  UNL     1     157.727 160.005 170.151  0.00  0.00    +0.000 A 
ATOM      9  C5  UNL     1     157.441 158.640 170.007  0.00  0.00    +0.000 A 
ATOM     10  C13 UNL     1     156.722 158.024 170.979  0.00  0.00    +0.000 A 
ATOM     11  C14 UNL     1     156.279 158.729 172.088  0.00  0.00    +0.000 A 
ENDBRANCH   1   9
BRANCH   2  12
ATOM     12  C7  UNL     1     157.776 157.196 166.431  0.00  0.00    +0.000 A 
ATOM     13  C8  UNL     1     159.138 157.194 166.213  0.00  0.00    +0.000 A 
ATOM     14  C9  UNL     1     159.724 156.537 165.132  0.00  0.00    +0.000 A 
ATOM     15 CL1  UNL     1     161.455 156.572 164.911  0.00  0.00    +0.000 Cl
ATOM     16  C10 UNL     1     158.873 155.885 164.281  0.00  0.00    +0.000 A 
ATOM     17  C11 UNL     1     157.524 155.878 164.484  0.00  0.00    +0.000 A 
ATOM     18  C12 UNL     1     156.917 156.542 165.581  0.00  0.00    +0.000 A 
BRANCH  18  19
ATOM     19  O2  UNL     1     155.556 156.473 165.693  0.00  0.00    +0.000 OA
ATOM     20  H10 UNL     1     154.974 156.964 166.270  0.00  0.00    +0.000 HD
ENDBRANCH  18  19
ENDBRANCH   2  12
TORSDOF 3
ENDMDL
MODEL 4
REMARK VINA RESULT:      -5.3     10.510     11.292
REMARK  Name = ./3D_structures\o19_MMV1578897_3D.pdb
REMARK  4 active torsions:
REMARK  status: ('A' for Active; 'I' for Inactive)
REMARK    1  A    between atoms: C1_1  and  C2_2
REMARK    2  A    between atoms: C5_5  and  N1_6
REMARK    3  A    between atoms: C6_7  and  C7_9
REMARK    4  A    between atoms: C12_15  and  O2_16
REMARK                            x       y       z     vdW  Elec       q    Type
REMARK                         _______ _______ _______ _____ _____    ______ ____
ROOT
ATOM      1  N1  UNL     1     157.580 158.774 168.444  0.00  0.00    +0.000 N 
ATOM      2  C6  UNL     1     158.029 158.796 169.782  0.00  0.00    +0.000 C 
ATOM      3  O1  UNL     1     158.978 158.032 170.081  0.00  0.00    +0.000 OA
ATOM      4  H6  UNL     1     156.766 159.427 168.217  0.00  0.00    +0.000 HD
ENDROOT
BRANCH   1   9
ATOM      5  C1  UNL     1     159.568 155.549 164.238  0.00  0.00    +0.000 C 
ATOM      6  C2  UNL     1     159.024 156.372 165.350  0.00  0.00    +0.000 A 
ATOM      7  C3  UNL     1     157.868 156.038 166.002  0.00  0.00    +0.000 A 
ATOM      8  C4  UNL     1     157.409 156.825 167.018  0.00  0.00    +0.000 A 
ATOM      9  C5  UNL     1     158.107 157.978 167.406  0.00  0.00    +0.000 A 
ATOM     10  C13 UNL     1     159.251 158.293 166.748  0.00  0.00    +0.000 A 
ATOM     11  C14 UNL     1     159.719 157.493 165.716  0.00  0.00    +0.000 A 
ENDBRANCH   1   9
BRANCH   2  12
ATOM     12  C7  UNL     1     157.421 159.678 170.816  0.00  0.00    +0.000 A 
ATOM     13  C8  UNL     1     157.551 161.047 170.702  0.00  0.00    +0.000 A 
ATOM     14  C9  UNL     1     157.008 161.932 171.632  0.00  0.00    +0.000 A 
ATOM     15 CL1  UNL     1     157.207 163.654 171.433  0.00  0.00    +0.000 Cl
ATOM     16  C10 UNL     1     156.330 161.373 172.681  0.00  0.00    +0.000 A 
ATOM     17  C11 UNL     1     156.193 160.022 172.806  0.00  0.00    +0.000 A 
ATOM     18  C12 UNL     1     156.740 159.111 171.866  0.00  0.00    +0.000 A 
BRANCH  18  19
ATOM     19  O2  UNL     1     156.546 157.775 172.084  0.00  0.00    +0.000 OA
ATOM     20  H10 UNL     1     156.718 157.039 171.500  0.00  0.00    +0.000 HD
ENDBRANCH  18  19
ENDBRANCH   2  12
TORSDOF 3
ENDMDL
MODEL 5
REMARK VINA RESULT:      -5.2     11.093     12.546
REMARK  Name = ./3D_structures\o19_MMV1578897_3D.pdb
REMARK  4 active torsions:
REMARK  status: ('A' for Active; 'I' for Inactive)
REMARK    1  A    between atoms: C1_1  and  C2_2
REMARK    2  A    between atoms: C5_5  and  N1_6
REMARK    3  A    between atoms: C6_7  and  C7_9
REMARK    4  A    between atoms: C12_15  and  O2_16
REMARK                            x       y       z     vdW  Elec       q    Type
REMARK                         _______ _______ _______ _____ _____    ______ ____
ROOT
ATOM      1  N1  UNL     1     157.566 156.693 167.173  0.00  0.00    +0.000 N 
ATOM      2  C6  UNL     1     157.279 157.282 165.923  0.00  0.00    +0.000 C 
ATOM      3  O1  UNL     1     156.730 158.410 165.934  0.00  0.00    +0.000 OA
ATOM      4  H6  UNL     1     158.026 155.730 167.137  0.00  0.00    +0.000 HD
ENDROOT
BRANCH   1   9
ATOM      5  C1  UNL     1     156.441 158.856 172.282  0.00  0.00    +0.000 C 
ATOM      6  C2  UNL     1     156.705 158.278 170.939  0.00  0.00    +0.000 A 
ATOM      7  C3  UNL     1     155.808 157.454 170.314  0.00  0.00    +0.000 A 
ATOM      8  C4  UNL     1     156.095 156.948 169.079  0.00  0.00    +0.000 A 
ATOM      9  C5  UNL     1     157.302 157.260 168.437  0.00  0.00    +0.000 A 
ATOM     10  C13 UNL     1     158.179 158.078 169.072  0.00  0.00    +0.000 A 
ATOM     11  C14 UNL     1     157.888 158.594 170.326  0.00  0.00    +0.000 A 
ENDBRANCH   1   9
BRANCH   2  12
ATOM     12  C7  UNL     1     157.603 156.617 164.632  0.00  0.00    +0.000 A 
ATOM     13  C8  UNL     1     157.483 155.247 164.524  0.00  0.00    +0.000 A 
ATOM     14  C9  UNL     1     157.769 154.559 163.346  0.00  0.00    +0.000 A 
ATOM     15 CL1  UNL     1     157.598 152.824 163.273  0.00  0.00    +0.000 Cl
ATOM     16  C10 UNL     1     158.182 155.316 162.283  0.00  0.00    +0.000 A 
ATOM     17  C11 UNL     1     158.305 156.671 162.375  0.00  0.00    +0.000 A 
ATOM     18  C12 UNL     1     158.016 157.383 163.568  0.00  0.00    +0.000 A 
BRANCH  18  19
ATOM     19  O2  UNL     1     158.171 158.741 163.554  0.00  0.00    +0.000 OA
ATOM     20  H10 UNL     1     158.684 159.282 162.957  0.00  0.00    +0.000 HD
ENDBRANCH  18  19
ENDBRANCH   2  12
TORSDOF 3
ENDMDL
MODEL 6
REMARK VINA RESULT:      -5.2      3.404      4.165
REMARK  Name = ./3D_structures\o19_MMV1578897_3D.pdb
REMARK  4 active torsions:
REMARK  status: ('A' for Active; 'I' for Inactive)
REMARK    1  A    between atoms: C1_1  and  C2_2
REMARK    2  A    between atoms: C5_5  and  N1_6
REMARK    3  A    between atoms: C6_7  and  C7_9
REMARK    4  A    between atoms: C12_15  and  O2_16
REMARK                            x       y       z     vdW  Elec       q    Type
REMARK                         _______ _______ _______ _____ _____    ______ ____
ROOT
ATOM      1  N1  UNL     1     149.946 162.063 167.038  0.00  0.00    +0.000 N 
ATOM      2  C6  UNL     1     149.790 163.459 167.174  0.00  0.00    +0.000 C 
ATOM      3  O1  UNL     1     150.821 164.164 167.063  0.00  0.00    +0.000 OA
ATOM      4  H6  UNL     1     149.054 161.484 167.145  0.00  0.00    +0.000 HD
ENDROOT
BRANCH   1   9
ATOM      5  C1  UNL     1     154.771 159.257 166.097  0.00  0.00    +0.000 C 
ATOM      6  C2  UNL     1     153.511 159.993 166.377  0.00  0.00    +0.000 A 
ATOM      7  C3  UNL     1     153.025 160.144 167.647  0.00  0.00    +0.000 A 
ATOM      8  C4  UNL     1     151.863 160.829 167.854  0.00  0.00    +0.000 A 
ATOM      9  C5  UNL     1     151.154 161.385 166.778  0.00  0.00    +0.000 A 
ATOM     10  C13 UNL     1     151.652 161.225 165.526  0.00  0.00    +0.000 A 
ATOM     11  C14 UNL     1     152.833 160.530 165.315  0.00  0.00    +0.000 A 
ENDBRANCH   1   9
BRANCH   2  12
ATOM     12  C7  UNL     1     148.470 164.095 167.438  0.00  0.00    +0.000 A 
ATOM     13  C8  UNL     1     147.995 165.059 166.573  0.00  0.00    +0.000 A 
ATOM     14  C9  UNL     1     146.769 165.695 166.758  0.00  0.00    +0.000 A 
ATOM     15 CL1  UNL     1     146.223 166.908 165.628  0.00  0.00    +0.000 Cl
ATOM     16  C10 UNL     1     146.045 165.315 167.856  0.00  0.00    +0.000 A 
ATOM     17  C11 UNL     1     146.501 164.363 168.719  0.00  0.00    +0.000 A 
ATOM     18  C12 UNL     1     147.747 163.708 168.541  0.00  0.00    +0.000 A 
BRANCH  18  19
ATOM     19  O2  UNL     1     148.112 162.768 169.464  0.00  0.00    +0.000 OA
ATOM     20  H10 UNL     1     148.987 162.484 169.720  0.00  0.00    +0.000 HD
ENDBRANCH  18  19
ENDBRANCH   2  12
TORSDOF 3
ENDMDL
MODEL 7
REMARK VINA RESULT:      -5.2     13.403     14.718
REMARK  Name = ./3D_structures\o19_MMV1578897_3D.pdb
REMARK  4 active torsions:
REMARK  status: ('A' for Active; 'I' for Inactive)
REMARK    1  A    between atoms: C1_1  and  C2_2
REMARK    2  A    between atoms: C5_5  and  N1_6
REMARK    3  A    between atoms: C6_7  and  C7_9
REMARK    4  A    between atoms: C12_15  and  O2_16
REMARK                            x       y       z     vdW  Elec       q    Type
REMARK                         _______ _______ _______ _____ _____    ______ ____
ROOT
ATOM      1  N1  UNL     1     147.089 151.803 166.102  0.00  0.00    +0.000 N 
ATOM      2  C6  UNL     1     147.502 151.016 167.198  0.00  0.00    +0.000 C 
ATOM      3  O1  UNL     1     147.315 149.778 167.116  0.00  0.00    +0.000 OA
ATOM      4  H6  UNL     1     147.251 152.855 166.198  0.00  0.00    +0.000 HD
ENDROOT
BRANCH   1   9
ATOM      5  C1  UNL     1     144.590 149.958 161.369  0.00  0.00    +0.000 C 
ATOM      6  C2  UNL     1     145.218 150.437 162.628  0.00  0.00    +0.000 A 
ATOM      7  C3  UNL     1     144.490 150.648 163.768  0.00  0.00    +0.000 A 
ATOM      8  C4  UNL     1     145.113 151.087 164.901  0.00  0.00    +0.000 A 
ATOM      9  C5  UNL     1     146.495 151.326 164.915  0.00  0.00    +0.000 A 
ATOM     10  C13 UNL     1     147.199 151.112 163.776  0.00  0.00    +0.000 A 
ATOM     11  C14 UNL     1     146.568 150.665 162.625  0.00  0.00    +0.000 A 
ENDBRANCH   1   9
BRANCH   2  12
ATOM     12  C7  UNL     1     148.134 151.602 168.411  0.00  0.00    +0.000 A 
ATOM     13  C8  UNL     1     147.406 151.694 169.580  0.00  0.00    +0.000 A 
ATOM     14  C9  UNL     1     147.935 152.231 170.752  0.00  0.00    +0.000 A 
ATOM     15 CL1  UNL     1     146.963 152.320 172.199  0.00  0.00    +0.000 Cl
ATOM     16  C10 UNL     1     149.229 152.671 170.692  0.00  0.00    +0.000 A 
ATOM     17  C11 UNL     1     149.961 152.586 169.544  0.00  0.00    +0.000 A 
ATOM     18  C12 UNL     1     149.434 152.041 168.344  0.00  0.00    +0.000 A 
BRANCH  18  19
ATOM     19  O2  UNL     1     150.251 152.003 167.249  0.00  0.00    +0.000 OA
ATOM     20  H10 UNL     1     150.636 151.246 166.811  0.00  0.00    +0.000 HD
ENDBRANCH  18  19
ENDBRANCH   2  12
TORSDOF 3
ENDMDL
MODEL 8
REMARK VINA RESULT:      -5.2     11.141     12.689
REMARK  Name = ./3D_structures\o19_MMV1578897_3D.pdb
REMARK  4 active torsions:
REMARK  status: ('A' for Active; 'I' for Inactive)
REMARK    1  A    between atoms: C1_1  and  C2_2
REMARK    2  A    between atoms: C5_5  and  N1_6
REMARK    3  A    between atoms: C6_7  and  C7_9
REMARK    4  A    between atoms: C12_15  and  O2_16
REMARK                            x       y       z     vdW  Elec       q    Type
REMARK                         _______ _______ _______ _____ _____    ______ ____
ROOT
ATOM      1  N1  UNL     1     157.928 156.928 166.482  0.00  0.00    +0.000 N 
ATOM      2  C6  UNL     1     157.498 157.573 165.303  0.00  0.00    +0.000 C 
ATOM      3  O1  UNL     1     156.873 158.652 165.435  0.00  0.00    +0.000 OA
ATOM      4  H6  UNL     1     158.451 156.007 166.343  0.00  0.00    +0.000 HD
ENDROOT
BRANCH   1   9
ATOM      5  C1  UNL     1     157.192 158.895 171.739  0.00  0.00    +0.000 C 
ATOM      6  C2  UNL     1     157.417 158.389 170.360  0.00  0.00    +0.000 A 
ATOM      7  C3  UNL     1     158.551 158.686 169.653  0.00  0.00    +0.000 A 
ATOM      8  C4  UNL     1     158.712 158.197 168.389  0.00  0.00    +0.000 A 
ATOM      9  C5  UNL     1     157.728 157.389 167.799  0.00  0.00    +0.000 A 
ATOM     10  C13 UNL     1     156.612 157.105 168.515  0.00  0.00    +0.000 A 
ATOM     11  C14 UNL     1     156.447 157.601 169.800  0.00  0.00    +0.000 A 
ENDBRANCH   1   9
BRANCH   2  12
ATOM     12  C7  UNL     1     157.762 157.019 163.946  0.00  0.00    +0.000 A 
ATOM     13  C8  UNL     1     158.263 157.845 162.961  0.00  0.00    +0.000 A 
ATOM     14  C9  UNL     1     158.533 157.394 161.670  0.00  0.00    +0.000 A 
ATOM     15 CL1  UNL     1     159.166 158.489 160.467  0.00  0.00    +0.000 Cl
ATOM     16  C10 UNL     1     158.275 156.074 161.419  0.00  0.00    +0.000 A 
ATOM     17  C11 UNL     1     157.780 155.246 162.383  0.00  0.00    +0.000 A 
ATOM     18  C12 UNL     1     157.501 155.693 163.701  0.00  0.00    +0.000 A 
BRANCH  18  19
ATOM     19  O2  UNL     1     157.007 154.781 164.592  0.00  0.00    +0.000 OA
ATOM     20  H10 UNL     1     157.381 153.948 164.870  0.00  0.00    +0.000 HD
ENDBRANCH  18  19
ENDBRANCH   2  12
TORSDOF 3
ENDMDL
MODEL 9
REMARK VINA RESULT:      -5.1     13.653     14.688
REMARK  Name = ./3D_structures\o19_MMV1578897_3D.pdb
REMARK  4 active torsions:
REMARK  status: ('A' for Active; 'I' for Inactive)
REMARK    1  A    between atoms: C1_1  and  C2_2
REMARK    2  A    between atoms: C5_5  and  N1_6
REMARK    3  A    between atoms: C6_7  and  C7_9
REMARK    4  A    between atoms: C12_15  and  O2_16
REMARK                            x       y       z     vdW  Elec       q    Type
REMARK                         _______ _______ _______ _____ _____    ______ ____
ROOT
ATOM      1  N1  UNL     1     146.747 151.914 166.666  0.00  0.00    +0.000 N 
ATOM      2  C6  UNL     1     147.143 151.068 167.724  0.00  0.00    +0.000 C 
ATOM      3  O1  UNL     1     147.182 149.837 167.490  0.00  0.00    +0.000 OA
ATOM      4  H6  UNL     1     146.714 152.957 166.893  0.00  0.00    +0.000 HD
ENDROOT
BRANCH   1   9
ATOM      5  C1  UNL     1     145.470 150.201 161.423  0.00  0.00    +0.000 C 
ATOM      6  C2  UNL     1     145.836 150.659 162.789  0.00  0.00    +0.000 A 
ATOM      7  C3  UNL     1     147.126 150.961 163.132  0.00  0.00    +0.000 A 
ATOM      8  C4  UNL     1     147.412 151.378 164.400  0.00  0.00    +0.000 A 
ATOM      9  C5  UNL     1     146.399 151.503 165.362  0.00  0.00    +0.000 A 
ATOM     10  C13 UNL     1     145.127 151.199 165.003  0.00  0.00    +0.000 A 
ATOM     11  C14 UNL     1     144.834 150.775 163.716  0.00  0.00    +0.000 A 
ENDBRANCH   1   9
BRANCH   2  12
ATOM     12  C7  UNL     1     147.505 151.588 169.071  0.00  0.00    +0.000 A 
ATOM     13  C8  UNL     1     148.600 152.416 169.208  0.00  0.00    +0.000 A 
ATOM     14  C9  UNL     1     148.996 152.939 170.438  0.00  0.00    +0.000 A 
ATOM     15 CL1  UNL     1     150.392 153.981 170.546  0.00  0.00    +0.000 Cl
ATOM     16  C10 UNL     1     148.238 152.588 171.522  0.00  0.00    +0.000 A 
ATOM     17  C11 UNL     1     147.153 151.771 171.401  0.00  0.00    +0.000 A 
ATOM     18  C12 UNL     1     146.739 151.233 170.155  0.00  0.00    +0.000 A 
BRANCH  18  19
ATOM     19  O2  UNL     1     145.637 150.424 170.144  0.00  0.00    +0.000 OA
ATOM     20  H10 UNL     1     145.292 149.888 169.433  0.00  0.00    +0.000 HD
ENDBRANCH  18  19
ENDBRANCH   2  12
TORSDOF 3
ENDMDL
