MODEL 1
REMARK VINA RESULT:      -5.9      0.000      0.000
REMARK  Name = ./3D_structures\o1_MMV1578558_3D.pdb
REMARK  5 active torsions:
REMARK  status: ('A' for Active; 'I' for Inactive)
REMARK    1  A    between atoms: C1_1  and  C2_2
REMARK    2  A    between atoms: C2_2  and  C3_3
REMARK    3  A    between atoms: C10_11  and  C11_12
REMARK    4  A    between atoms: C11_12  and  C12_14
REMARK    5  A    between atoms: C15_17  and  O3_18
REMARK                            x       y       z     vdW  Elec       q    Type
REMARK                         _______ _______ _______ _____ _____    ______ ____
ROOT
ATOM      1  C3  UNL     1     157.827 161.340 170.457  0.00  0.00    +0.000 A 
ATOM      2  O1  UNL     1     157.341 162.204 171.284  0.00  0.00    +0.000 OA
ATOM      3  C4  UNL     1     156.648 161.627 172.173  0.00  0.00    +0.000 A 
ATOM      4  C5  UNL     1     155.852 162.187 173.180  0.00  0.00    +0.000 A 
ATOM      5  C6  UNL     1     155.061 161.332 173.925  0.00  0.00    +0.000 A 
ATOM      6  C7  UNL     1     155.080 159.888 173.752  0.00  0.00    +0.000 A 
ATOM      7  C8  UNL     1     155.930 159.519 172.741  0.00  0.00    +0.000 A 
ATOM      8  C9  UNL     1     156.649 160.247 172.008  0.00  0.00    +0.000 A 
ATOM      9  C10 UNL     1     157.443 160.059 170.857  0.00  0.00    +0.000 A 
ENDROOT
BRANCH   1  11
ATOM     10  C1  UNL     1     160.003 161.506 169.064  0.00  0.00    +0.000 C 
ATOM     11  C2  UNL     1     158.568 161.759 169.289  0.00  0.00    +0.000 C 
ENDBRANCH   1  11
BRANCH   9  12
ATOM     12  C11 UNL     1     157.751 158.847 170.231  0.00  0.00    +0.000 C 
ATOM     13  O2  UNL     1     158.570 157.969 170.805  0.00  0.00    +0.000 OA
BRANCH  12  14
ATOM     14  C12 UNL     1     157.342 158.306 168.931  0.00  0.00    +0.000 A 
ATOM     15  C13 UNL     1     156.056 157.918 168.809  0.00  0.00    +0.000 A 
ATOM     16  C14 UNL     1     155.646 157.268 167.730  0.00  0.00    +0.000 A 
ATOM     17  C15 UNL     1     156.500 156.969 166.688  0.00  0.00    +0.000 A 
ATOM     18  C16 UNL     1     157.790 157.369 166.793  0.00  0.00    +0.000 A 
ATOM     19  C17 UNL     1     158.232 158.039 167.900  0.00  0.00    +0.000 A 
BRANCH  17  20
ATOM     20  O3  UNL     1     155.904 156.197 165.613  0.00  0.00    +0.000 OA
ATOM     21  H12 UNL     1     154.848 155.978 165.828  0.00  0.00    +0.000 HD
ENDBRANCH  17  20
ENDBRANCH  12  14
ENDBRANCH   9  12
TORSDOF 4
ENDMDL
MODEL 2
REMARK VINA RESULT:      -5.9      1.611      6.302
REMARK  Name = ./3D_structures\o1_MMV1578558_3D.pdb
REMARK  5 active torsions:
REMARK  status: ('A' for Active; 'I' for Inactive)
REMARK    1  A    between atoms: C1_1  and  C2_2
REMARK    2  A    between atoms: C2_2  and  C3_3
REMARK    3  A    between atoms: C10_11  and  C11_12
REMARK    4  A    between atoms: C11_12  and  C12_14
REMARK    5  A    between atoms: C15_17  and  O3_18
REMARK                            x       y       z     vdW  Elec       q    Type
REMARK                         _______ _______ _______ _____ _____    ______ ____
ROOT
ATOM      1  C3  UNL     1     155.561 157.652 168.868  0.00  0.00    +0.000 A 
ATOM      2  O1  UNL     1     156.042 157.479 167.683  0.00  0.00    +0.000 OA
ATOM      3  C4  UNL     1     157.292 157.687 167.674  0.00  0.00    +0.000 A 
ATOM      4  C5  UNL     1     158.178 157.729 166.591  0.00  0.00    +0.000 A 
ATOM      5  C6  UNL     1     159.474 158.141 166.836  0.00  0.00    +0.000 A 
ATOM      6  C7  UNL     1     159.963 158.457 168.169  0.00  0.00    +0.000 A 
ATOM      7  C8  UNL     1     158.968 158.340 169.105  0.00  0.00    +0.000 A 
ATOM      8  C9  UNL     1     157.766 158.004 168.942  0.00  0.00    +0.000 A 
ATOM      9  C10 UNL     1     156.602 157.976 169.740  0.00  0.00    +0.000 A 
ENDROOT
BRANCH   1  11
ATOM     10  C1  UNL     1     153.210 158.720 169.053  0.00  0.00    +0.000 C 
ATOM     11  C2  UNL     1     154.139 157.577 169.115  0.00  0.00    +0.000 C 
ENDBRANCH   1  11
BRANCH   9  12
ATOM     12  C11 UNL     1     156.508 158.251 171.107  0.00  0.00    +0.000 C 
ATOM     13  O2  UNL     1     156.483 157.266 172.003  0.00  0.00    +0.000 OA
BRANCH  12  14
ATOM     14  C12 UNL     1     156.388 159.523 171.826  0.00  0.00    +0.000 A 
ATOM     15  C13 UNL     1     157.052 160.579 171.312  0.00  0.00    +0.000 A 
ATOM     16  C14 UNL     1     157.133 161.718 171.984  0.00  0.00    +0.000 A 
ATOM     17  C15 UNL     1     156.544 161.880 173.221  0.00  0.00    +0.000 A 
ATOM     18  C16 UNL     1     155.861 160.832 173.739  0.00  0.00    +0.000 A 
ATOM     19  C17 UNL     1     155.767 159.648 173.061  0.00  0.00    +0.000 A 
BRANCH  17  20
ATOM     20  O3  UNL     1     156.785 163.168 173.847  0.00  0.00    +0.000 OA
ATOM     21  H12 UNL     1     155.907 163.491 174.426  0.00  0.00    +0.000 HD
ENDBRANCH  17  20
ENDBRANCH  12  14
ENDBRANCH   9  12
TORSDOF 4
ENDMDL
MODEL 3
REMARK VINA RESULT:      -5.8      1.658      6.350
REMARK  Name = ./3D_structures\o1_MMV1578558_3D.pdb
REMARK  5 active torsions:
REMARK  status: ('A' for Active; 'I' for Inactive)
REMARK    1  A    between atoms: C1_1  and  C2_2
REMARK    2  A    between atoms: C2_2  and  C3_3
REMARK    3  A    between atoms: C10_11  and  C11_12
REMARK    4  A    between atoms: C11_12  and  C12_14
REMARK    5  A    between atoms: C15_17  and  O3_18
REMARK                            x       y       z     vdW  Elec       q    Type
REMARK                         _______ _______ _______ _____ _____    ______ ____
ROOT
ATOM      1  C3  UNL     1     154.490 157.540 168.839  0.00  0.00    +0.000 A 
ATOM      2  O1  UNL     1     154.511 157.280 167.575  0.00  0.00    +0.000 OA
ATOM      3  C4  UNL     1     155.704 157.233 167.150  0.00  0.00    +0.000 A 
ATOM      4  C5  UNL     1     156.175 157.102 165.838  0.00  0.00    +0.000 A 
ATOM      5  C6  UNL     1     157.533 157.245 165.625  0.00  0.00    +0.000 A 
ATOM      6  C7  UNL     1     158.484 157.450 166.706  0.00  0.00    +0.000 A 
ATOM      7  C8  UNL     1     157.849 157.530 167.919  0.00  0.00    +0.000 A 
ATOM      8  C9  UNL     1     156.620 157.443 168.174  0.00  0.00    +0.000 A 
ATOM      9  C10 UNL     1     155.801 157.645 169.305  0.00  0.00    +0.000 A 
ENDROOT
BRANCH   1  11
ATOM     10  C1  UNL     1     152.724 159.063 169.964  0.00  0.00    +0.000 C 
ATOM     11  C2  UNL     1     153.242 157.750 169.537  0.00  0.00    +0.000 C 
ENDBRANCH   1  11
BRANCH   9  12
ATOM     12  C11 UNL     1     156.216 157.926 170.611  0.00  0.00    +0.000 C 
ATOM     13  O2  UNL     1     156.312 156.961 171.521  0.00  0.00    +0.000 OA
BRANCH  12  14
ATOM     14  C12 UNL     1     156.573 159.195 171.254  0.00  0.00    +0.000 A 
ATOM     15  C13 UNL     1     156.031 159.437 172.466  0.00  0.00    +0.000 A 
ATOM     16  C14 UNL     1     156.166 160.623 173.041  0.00  0.00    +0.000 A 
ATOM     17  C15 UNL     1     156.864 161.651 172.440  0.00  0.00    +0.000 A 
ATOM     18  C16 UNL     1     157.426 161.413 171.231  0.00  0.00    +0.000 A 
ATOM     19  C17 UNL     1     157.296 160.196 170.622  0.00  0.00    +0.000 A 
BRANCH  17  20
ATOM     20  O3  UNL     1     156.859 162.903 173.176  0.00  0.00    +0.000 OA
ATOM     21  H12 UNL     1     155.840 163.309 173.248  0.00  0.00    +0.000 HD
ENDBRANCH  17  20
ENDBRANCH  12  14
ENDBRANCH   9  12
TORSDOF 4
ENDMDL
MODEL 4
REMARK VINA RESULT:      -5.7      3.411      6.198
REMARK  Name = ./3D_structures\o1_MMV1578558_3D.pdb
REMARK  5 active torsions:
REMARK  status: ('A' for Active; 'I' for Inactive)
REMARK    1  A    between atoms: C1_1  and  C2_2
REMARK    2  A    between atoms: C2_2  and  C3_3
REMARK    3  A    between atoms: C10_11  and  C11_12
REMARK    4  A    between atoms: C11_12  and  C12_14
REMARK    5  A    between atoms: C15_17  and  O3_18
REMARK                            x       y       z     vdW  Elec       q    Type
REMARK                         _______ _______ _______ _____ _____    ______ ____
ROOT
ATOM      1  C3  UNL     1     156.515 158.240 170.053  0.00  0.00    +0.000 A 
ATOM      2  O1  UNL     1     157.347 157.545 169.353  0.00  0.00    +0.000 OA
ATOM      3  C4  UNL     1     156.924 157.408 168.167  0.00  0.00    +0.000 A 
ATOM      4  C5  UNL     1     157.445 156.635 167.122  0.00  0.00    +0.000 A 
ATOM      5  C6  UNL     1     156.696 156.531 165.964  0.00  0.00    +0.000 A 
ATOM      6  C7  UNL     1     155.443 157.241 165.768  0.00  0.00    +0.000 A 
ATOM      7  C8  UNL     1     155.100 157.963 166.883  0.00  0.00    +0.000 A 
ATOM      8  C9  UNL     1     155.718 158.072 167.974  0.00  0.00    +0.000 A 
ATOM      9  C10 UNL     1     155.449 158.631 169.241  0.00  0.00    +0.000 A 
ENDROOT
BRANCH   1  11
ATOM     10  C1  UNL     1     156.771 159.762 172.132  0.00  0.00    +0.000 C 
ATOM     11  C2  UNL     1     156.721 158.446 171.469  0.00  0.00    +0.000 C 
ENDBRANCH   1  11
BRANCH   9  12
ATOM     12  C11 UNL     1     154.334 159.388 169.612  0.00  0.00    +0.000 C 
ATOM     13  O2  UNL     1     154.301 160.703 169.412  0.00  0.00    +0.000 OA
BRANCH  12  14
ATOM     14  C12 UNL     1     153.083 158.996 170.270  0.00  0.00    +0.000 A 
ATOM     15  C13 UNL     1     152.440 157.922 169.766  0.00  0.00    +0.000 A 
ATOM     16  C14 UNL     1     151.226 157.601 170.190  0.00  0.00    +0.000 A 
ATOM     17  C15 UNL     1     150.575 158.334 171.161  0.00  0.00    +0.000 A 
ATOM     18  C16 UNL     1     151.217 159.405 171.685  0.00  0.00    +0.000 A 
ATOM     19  C17 UNL     1     152.469 159.752 171.258  0.00  0.00    +0.000 A 
BRANCH  17  20
ATOM     20  O3  UNL     1     149.227 157.884 171.462  0.00  0.00    +0.000 OA
ATOM     21  H12 UNL     1     148.571 158.738 171.685  0.00  0.00    +0.000 HD
ENDBRANCH  17  20
ENDBRANCH  12  14
ENDBRANCH   9  12
TORSDOF 4
ENDMDL
MODEL 5
REMARK VINA RESULT:      -5.7      1.275      3.532
REMARK  Name = ./3D_structures\o1_MMV1578558_3D.pdb
REMARK  5 active torsions:
REMARK  status: ('A' for Active; 'I' for Inactive)
REMARK    1  A    between atoms: C1_1  and  C2_2
REMARK    2  A    between atoms: C2_2  and  C3_3
REMARK    3  A    between atoms: C10_11  and  C11_12
REMARK    4  A    between atoms: C11_12  and  C12_14
REMARK    5  A    between atoms: C15_17  and  O3_18
REMARK                            x       y       z     vdW  Elec       q    Type
REMARK                         _______ _______ _______ _____ _____    ______ ____
ROOT
ATOM      1  C3  UNL     1     156.159 160.600 172.732  0.00  0.00    +0.000 A 
ATOM      2  O1  UNL     1     156.604 161.811 172.750  0.00  0.00    +0.000 OA
ATOM      3  C4  UNL     1     157.368 162.020 171.761  0.00  0.00    +0.000 A 
ATOM      4  C5  UNL     1     158.151 163.142 171.464  0.00  0.00    +0.000 A 
ATOM      5  C6  UNL     1     159.027 163.051 170.399  0.00  0.00    +0.000 A 
ATOM      6  C7  UNL     1     159.112 161.878 169.544  0.00  0.00    +0.000 A 
ATOM      7  C8  UNL     1     158.260 160.890 169.969  0.00  0.00    +0.000 A 
ATOM      8  C9  UNL     1     157.466 160.898 170.946  0.00  0.00    +0.000 A 
ATOM      9  C10 UNL     1     156.652 159.949 171.600  0.00  0.00    +0.000 A 
ENDROOT
BRANCH   1  11
ATOM     10  C1  UNL     1     153.890 160.240 173.924  0.00  0.00    +0.000 C 
ATOM     11  C2  UNL     1     155.352 160.085 173.815  0.00  0.00    +0.000 C 
ENDBRANCH   1  11
BRANCH   9  12
ATOM     12  C11 UNL     1     156.417 158.627 171.212  0.00  0.00    +0.000 C 
ATOM     13  O2  UNL     1     156.619 157.619 172.058  0.00  0.00    +0.000 OA
BRANCH  12  14
ATOM     14  C12 UNL     1     155.982 158.064 169.930  0.00  0.00    +0.000 A 
ATOM     15  C13 UNL     1     156.941 157.550 169.133  0.00  0.00    +0.000 A 
ATOM     16  C14 UNL     1     156.660 157.175 167.894  0.00  0.00    +0.000 A 
ATOM     17  C15 UNL     1     155.388 157.280 167.370  0.00  0.00    +0.000 A 
ATOM     18  C16 UNL     1     154.414 157.778 168.167  0.00  0.00    +0.000 A 
ATOM     19  C17 UNL     1     154.685 158.173 169.448  0.00  0.00    +0.000 A 
BRANCH  17  20
ATOM     20  O3  UNL     1     155.268 156.884 165.977  0.00  0.00    +0.000 OA
ATOM     21  H12 UNL     1     154.493 157.477 165.469  0.00  0.00    +0.000 HD
ENDBRANCH  17  20
ENDBRANCH  12  14
ENDBRANCH   9  12
TORSDOF 4
ENDMDL
MODEL 6
REMARK VINA RESULT:      -5.7      3.781      5.675
REMARK  Name = ./3D_structures\o1_MMV1578558_3D.pdb
REMARK  5 active torsions:
REMARK  status: ('A' for Active; 'I' for Inactive)
REMARK    1  A    between atoms: C1_1  and  C2_2
REMARK    2  A    between atoms: C2_2  and  C3_3
REMARK    3  A    between atoms: C10_11  and  C11_12
REMARK    4  A    between atoms: C11_12  and  C12_14
REMARK    5  A    between atoms: C15_17  and  O3_18
REMARK                            x       y       z     vdW  Elec       q    Type
REMARK                         _______ _______ _______ _____ _____    ______ ____
ROOT
ATOM      1  C3  UNL     1     154.232 158.449 169.293  0.00  0.00    +0.000 A 
ATOM      2  O1  UNL     1     155.028 158.365 170.305  0.00  0.00    +0.000 OA
ATOM      3  C4  UNL     1     156.233 158.495 169.935  0.00  0.00    +0.000 A 
ATOM      4  C5  UNL     1     157.411 158.350 170.678  0.00  0.00    +0.000 A 
ATOM      5  C6  UNL     1     158.611 158.385 169.994  0.00  0.00    +0.000 A 
ATOM      6  C7  UNL     1     158.698 158.636 168.564  0.00  0.00    +0.000 A 
ATOM      7  C8  UNL     1     157.452 158.776 168.008  0.00  0.00    +0.000 A 
ATOM      8  C9  UNL     1     156.326 158.721 168.567  0.00  0.00    +0.000 A 
ATOM      9  C10 UNL     1     154.981 158.692 168.141  0.00  0.00    +0.000 A 
ENDROOT
BRANCH   1  11
ATOM     10  C1  UNL     1     151.783 159.282 169.400  0.00  0.00    +0.000 C 
ATOM     11  C2  UNL     1     152.811 158.227 169.441  0.00  0.00    +0.000 C 
ENDBRANCH   1  11
BRANCH   9  12
ATOM     12  C11 UNL     1     154.504 158.841 166.835  0.00  0.00    +0.000 C 
ATOM     13  O2  UNL     1     154.518 157.821 165.981  0.00  0.00    +0.000 OA
BRANCH  12  14
ATOM     14  C12 UNL     1     153.970 160.014 166.136  0.00  0.00    +0.000 A 
ATOM     15  C13 UNL     1     152.650 160.007 165.855  0.00  0.00    +0.000 A 
ATOM     16  C14 UNL     1     152.118 160.943 165.083  0.00  0.00    +0.000 A 
ATOM     17  C15 UNL     1     152.877 161.963 164.544  0.00  0.00    +0.000 A 
ATOM     18  C16 UNL     1     154.199 161.988 164.833  0.00  0.00    +0.000 A 
ATOM     19  C17 UNL     1     154.766 161.030 165.626  0.00  0.00    +0.000 A 
BRANCH  17  20
ATOM     20  O3  UNL     1     152.150 162.866 163.670  0.00  0.00    +0.000 OA
ATOM     21  H12 UNL     1     151.254 162.377 163.260  0.00  0.00    +0.000 HD
ENDBRANCH  17  20
ENDBRANCH  12  14
ENDBRANCH   9  12
TORSDOF 4
ENDMDL
MODEL 7
REMARK VINA RESULT:      -5.7      3.259      5.598
REMARK  Name = ./3D_structures\o1_MMV1578558_3D.pdb
REMARK  5 active torsions:
REMARK  status: ('A' for Active; 'I' for Inactive)
REMARK    1  A    between atoms: C1_1  and  C2_2
REMARK    2  A    between atoms: C2_2  and  C3_3
REMARK    3  A    between atoms: C10_11  and  C11_12
REMARK    4  A    between atoms: C11_12  and  C12_14
REMARK    5  A    between atoms: C15_17  and  O3_18
REMARK                            x       y       z     vdW  Elec       q    Type
REMARK                         _______ _______ _______ _____ _____    ______ ____
ROOT
ATOM      1  C3  UNL     1     157.136 157.047 166.819  0.00  0.00    +0.000 A 
ATOM      2  O1  UNL     1     156.225 156.811 167.703  0.00  0.00    +0.000 OA
ATOM      3  C4  UNL     1     156.526 157.354 168.807  0.00  0.00    +0.000 A 
ATOM      4  C5  UNL     1     155.888 157.251 170.050  0.00  0.00    +0.000 A 
ATOM      5  C6  UNL     1     156.516 157.816 171.143  0.00  0.00    +0.000 A 
ATOM      6  C7  UNL     1     157.759 158.566 171.040  0.00  0.00    +0.000 A 
ATOM      7  C8  UNL     1     158.224 158.582 169.751  0.00  0.00    +0.000 A 
ATOM      8  C9  UNL     1     157.720 158.060 168.722  0.00  0.00    +0.000 A 
ATOM      9  C10 UNL     1     158.124 157.854 167.386  0.00  0.00    +0.000 A 
ENDROOT
BRANCH   1  11
ATOM     10  C1  UNL     1     157.841 155.258 165.085  0.00  0.00    +0.000 C 
ATOM     11  C2  UNL     1     157.076 156.446 165.506  0.00  0.00    +0.000 C 
ENDBRANCH   1  11
BRANCH   9  12
ATOM     12  C11 UNL     1     159.286 158.329 166.771  0.00  0.00    +0.000 C 
ATOM     13  O2  UNL     1     159.327 159.545 166.231  0.00  0.00    +0.000 OA
BRANCH  12  14
ATOM     14  C12 UNL     1     160.587 157.689 166.550  0.00  0.00    +0.000 A 
ATOM     15  C13 UNL     1     161.532 157.888 167.492  0.00  0.00    +0.000 A 
ATOM     16  C14 UNL     1     162.779 157.488 167.293  0.00  0.00    +0.000 A 
ATOM     17  C15 UNL     1     163.164 156.849 166.132  0.00  0.00    +0.000 A 
ATOM     18  C16 UNL     1     162.220 156.630 165.186  0.00  0.00    +0.000 A 
ATOM     19  C17 UNL     1     160.928 157.037 165.374  0.00  0.00    +0.000 A 
BRANCH  17  20
ATOM     20  O3  UNL     1     164.580 156.536 166.049  0.00  0.00    +0.000 OA
ATOM     21  H12 UNL     1     164.750 155.456 166.172  0.00  0.00    +0.000 HD
ENDBRANCH  17  20
ENDBRANCH  12  14
ENDBRANCH   9  12
TORSDOF 4
ENDMDL
MODEL 8
REMARK VINA RESULT:      -5.7      2.859      5.062
REMARK  Name = ./3D_structures\o1_MMV1578558_3D.pdb
REMARK  5 active torsions:
REMARK  status: ('A' for Active; 'I' for Inactive)
REMARK    1  A    between atoms: C1_1  and  C2_2
REMARK    2  A    between atoms: C2_2  and  C3_3
REMARK    3  A    between atoms: C10_11  and  C11_12
REMARK    4  A    between atoms: C11_12  and  C12_14
REMARK    5  A    between atoms: C15_17  and  O3_18
REMARK                            x       y       z     vdW  Elec       q    Type
REMARK                         _______ _______ _______ _____ _____    ______ ____
ROOT
ATOM      1  C3  UNL     1     158.859 157.948 167.033  0.00  0.00    +0.000 A 
ATOM      2  O1  UNL     1     159.104 158.418 168.210  0.00  0.00    +0.000 OA
ATOM      3  C4  UNL     1     158.190 158.085 169.022  0.00  0.00    +0.000 A 
ATOM      4  C5  UNL     1     157.998 158.478 170.352  0.00  0.00    +0.000 A 
ATOM      5  C6  UNL     1     156.822 158.097 170.971  0.00  0.00    +0.000 A 
ATOM      6  C7  UNL     1     155.827 157.256 170.325  0.00  0.00    +0.000 A 
ATOM      7  C8  UNL     1     156.191 156.951 169.039  0.00  0.00    +0.000 A 
ATOM      8  C9  UNL     1     157.226 157.293 168.410  0.00  0.00    +0.000 A 
ATOM      9  C10 UNL     1     157.681 157.201 167.077  0.00  0.00    +0.000 A 
ENDROOT
BRANCH   1  11
ATOM     10  C1  UNL     1     160.825 157.457 165.422  0.00  0.00    +0.000 C 
ATOM     11  C2  UNL     1     159.701 158.279 165.907  0.00  0.00    +0.000 C 
ENDBRANCH   1  11
BRANCH   9  12
ATOM     12  C11 UNL     1     157.062 156.532 166.017  0.00  0.00    +0.000 C 
ATOM     13  O2  UNL     1     155.742 156.586 165.850  0.00  0.00    +0.000 OA
BRANCH  12  14
ATOM     14  C12 UNL     1     157.618 155.672 164.967  0.00  0.00    +0.000 A 
ATOM     15  C13 UNL     1     158.395 154.645 165.368  0.00  0.00    +0.000 A 
ATOM     16  C14 UNL     1     159.069 153.923 164.485  0.00  0.00    +0.000 A 
ATOM     17  C15 UNL     1     159.003 154.177 163.131  0.00  0.00    +0.000 A 
ATOM     18  C16 UNL     1     158.213 155.196 162.716  0.00  0.00    +0.000 A 
ATOM     19  C17 UNL     1     157.511 155.953 163.612  0.00  0.00    +0.000 A 
BRANCH  17  20
ATOM     20  O3  UNL     1     159.854 153.334 162.309  0.00  0.00    +0.000 OA
ATOM     21  H12 UNL     1     160.585 152.796 162.930  0.00  0.00    +0.000 HD
ENDBRANCH  17  20
ENDBRANCH  12  14
ENDBRANCH   9  12
TORSDOF 4
ENDMDL
MODEL 9
REMARK VINA RESULT:      -5.6      2.345      3.356
REMARK  Name = ./3D_structures\o1_MMV1578558_3D.pdb
REMARK  5 active torsions:
REMARK  status: ('A' for Active; 'I' for Inactive)
REMARK    1  A    between atoms: C1_1  and  C2_2
REMARK    2  A    between atoms: C2_2  and  C3_3
REMARK    3  A    between atoms: C10_11  and  C11_12
REMARK    4  A    between atoms: C11_12  and  C12_14
REMARK    5  A    between atoms: C15_17  and  O3_18
REMARK                            x       y       z     vdW  Elec       q    Type
REMARK                         _______ _______ _______ _____ _____    ______ ____
ROOT
ATOM      1  C3  UNL     1     154.095 159.141 169.533  0.00  0.00    +0.000 A 
ATOM      2  O1  UNL     1     153.488 160.066 170.197  0.00  0.00    +0.000 OA
ATOM      3  C4  UNL     1     154.048 160.249 171.319  0.00  0.00    +0.000 A 
ATOM      4  C5  UNL     1     153.649 161.059 172.389  0.00  0.00    +0.000 A 
ATOM      5  C6  UNL     1     154.355 160.953 173.573  0.00  0.00    +0.000 A 
ATOM      6  C7  UNL     1     155.522 160.100 173.723  0.00  0.00    +0.000 A 
ATOM      7  C8  UNL     1     155.778 159.400 172.571  0.00  0.00    +0.000 A 
ATOM      8  C9  UNL     1     155.157 159.426 171.477  0.00  0.00    +0.000 A 
ATOM      9  C10 UNL     1     155.186 158.687 170.275  0.00  0.00    +0.000 A 
ENDROOT
BRANCH   1  11
ATOM     10  C1  UNL     1     154.130 159.044 166.946  0.00  0.00    +0.000 C 
ATOM     11  C2  UNL     1     153.583 158.675 168.264  0.00  0.00    +0.000 C 
ENDBRANCH   1  11
BRANCH   9  12
ATOM     12  C11 UNL     1     156.097 157.687 169.919  0.00  0.00    +0.000 C 
ATOM     13  O2  UNL     1     156.007 156.464 170.437  0.00  0.00    +0.000 OA
BRANCH  12  14
ATOM     14  C12 UNL     1     157.263 157.721 169.031  0.00  0.00    +0.000 A 
ATOM     15  C13 UNL     1     158.357 158.366 169.486  0.00  0.00    +0.000 A 
ATOM     16  C14 UNL     1     159.391 158.587 168.688  0.00  0.00    +0.000 A 
ATOM     17  C15 UNL     1     159.403 158.166 167.374  0.00  0.00    +0.000 A 
ATOM     18  C16 UNL     1     158.316 157.503 166.912  0.00  0.00    +0.000 A 
ATOM     19  C17 UNL     1     157.239 157.267 167.720  0.00  0.00    +0.000 A 
BRANCH  17  20
ATOM     20  O3  UNL     1     160.586 158.546 166.622  0.00  0.00    +0.000 OA
ATOM     21  H12 UNL     1     161.321 159.039 167.275  0.00  0.00    +0.000 HD
ENDBRANCH  17  20
ENDBRANCH  12  14
ENDBRANCH   9  12
TORSDOF 4
ENDMDL
