MODEL 1
REMARK VINA RESULT:      -7.3      0.000      0.000
REMARK  Name = ./3D_structures\o21_MMV1578885_3D.pdb
REMARK  4 active torsions:
REMARK  status: ('A' for Active; 'I' for Inactive)
REMARK    1  A    between atoms: C1_2  and  C2_5
REMARK    2  A    between atoms: C4_7  and  N4_29
REMARK    3  A    between atoms: N3_19  and  C14_22
REMARK    4  A    between atoms: C14_22  and  C15_23
REMARK                            x       y       z     vdW  Elec       q    Type
REMARK                         _______ _______ _______ _____ _____    ______ ____
ROOT
ATOM      1  C2  UNL     1     146.973 165.538 166.720  0.00  0.00    +0.000 A 
ATOM      2  C3  UNL     1     146.323 165.056 167.832  0.00  0.00    +0.000 A 
ATOM      3  C4  UNL     1     147.017 164.150 168.631  0.00  0.00    +0.000 A 
ATOM      4  C5  UNL     1     148.299 163.758 168.307  0.00  0.00    +0.000 A 
ATOM      5  S1  UNL     1     149.209 162.654 169.222  0.00  0.00    +0.000 S 
ATOM      6  C6  UNL     1     150.765 162.344 168.570  0.00  0.00    +0.000 A 
ATOM      7  N1  UNL     1     151.000 163.032 167.444  0.00  0.00    +0.000 NA
ATOM      8  C7  UNL     1     150.199 163.875 166.827  0.00  0.00    +0.000 A 
ATOM      9  O1  UNL     1     150.666 164.410 165.756  0.00  0.00    +0.000 OA
ATOM     10  C8  UNL     1     148.932 164.249 167.189  0.00  0.00    +0.000 A 
ATOM     11  C9  UNL     1     148.262 165.167 166.360  0.00  0.00    +0.000 A 
ATOM     12  N2  UNL     1     151.722 161.486 169.098  0.00  0.00    +0.000 N 
ATOM     13  C10 UNL     1     151.502 160.740 170.321  0.00  0.00    +0.000 C 
ATOM     14  C11 UNL     1     151.806 159.303 169.931  0.00  0.00    +0.000 C 
ATOM     15  N3  UNL     1     153.256 159.203 169.820  0.00  0.00    +0.000 NA
ATOM     16  C12 UNL     1     153.883 160.387 169.285  0.00  0.00    +0.000 C 
ATOM     17  C13 UNL     1     152.970 161.267 168.450  0.00  0.00    +0.000 C 
ENDROOT
BRANCH   1  19
ATOM     18  F1  UNL     1     145.163 166.981 166.497  0.00  0.00    +0.000 F 
ATOM     19  C1  UNL     1     146.272 166.480 165.835  0.00  0.00    +0.000 C 
ATOM     20  F2  UNL     1     147.102 167.568 165.572  0.00  0.00    +0.000 F 
ATOM     21  F3  UNL     1     145.854 165.834 164.718  0.00  0.00    +0.000 F 
ENDBRANCH   1  19
BRANCH   3  22
ATOM     22  N4  UNL     1     146.397 163.622 169.796  0.00  0.00    +0.000 N 
ATOM     23  O2  UNL     1     145.791 162.387 169.816  0.00  0.00    +0.000 OA
ATOM     24  O3  UNL     1     146.394 164.262 170.837  0.00  0.00    +0.000 OA
ENDBRANCH   3  22
BRANCH  15  25
ATOM     25  C14 UNL     1     153.604 158.004 169.075  0.00  0.00    +0.000 C 
BRANCH  25  26
ATOM     26  C15 UNL     1     154.940 158.147 168.414  0.00  0.00    +0.000 C 
ATOM     27  C16 UNL     1     155.886 157.099 168.963  0.00  0.00    +0.000 C 
ATOM     28  C17 UNL     1     157.113 156.946 168.136  0.00  0.00    +0.000 C 
ATOM     29  C18 UNL     1     156.819 156.733 166.659  0.00  0.00    +0.000 C 
ATOM     30  C19 UNL     1     156.031 157.957 166.222  0.00  0.00    +0.000 C 
ATOM     31  C20 UNL     1     154.691 157.881 166.923  0.00  0.00    +0.000 C 
ENDBRANCH  25  26
ENDBRANCH  15  25
TORSDOF 4
ENDMDL
MODEL 2
REMARK VINA RESULT:      -6.9      1.780      2.097
REMARK  Name = ./3D_structures\o21_MMV1578885_3D.pdb
REMARK  4 active torsions:
REMARK  status: ('A' for Active; 'I' for Inactive)
REMARK    1  A    between atoms: C1_2  and  C2_5
REMARK    2  A    between atoms: C4_7  and  N4_29
REMARK    3  A    between atoms: N3_19  and  C14_22
REMARK    4  A    between atoms: C14_22  and  C15_23
REMARK                            x       y       z     vdW  Elec       q    Type
REMARK                         _______ _______ _______ _____ _____    ______ ____
ROOT
ATOM      1  C2  UNL     1     146.513 165.679 166.723  0.00  0.00    +0.000 A 
ATOM      2  C3  UNL     1     145.969 165.068 167.829  0.00  0.00    +0.000 A 
ATOM      3  C4  UNL     1     146.846 164.403 168.683  0.00  0.00    +0.000 A 
ATOM      4  C5  UNL     1     148.198 164.362 168.419  0.00  0.00    +0.000 A 
ATOM      5  S1  UNL     1     149.331 163.568 169.403  0.00  0.00    +0.000 S 
ATOM      6  C6  UNL     1     150.939 163.672 168.817  0.00  0.00    +0.000 A 
ATOM      7  N1  UNL     1     151.029 164.369 167.675  0.00  0.00    +0.000 NA
ATOM      8  C7  UNL     1     150.058 164.949 167.001  0.00  0.00    +0.000 A 
ATOM      9  O1  UNL     1     150.411 165.563 165.928  0.00  0.00    +0.000 OA
ATOM     10  C8  UNL     1     148.723 164.977 167.306  0.00  0.00    +0.000 A 
ATOM     11  C9  UNL     1     147.869 165.660 166.422  0.00  0.00    +0.000 A 
ATOM     12  N2  UNL     1     152.067 163.116 169.407  0.00  0.00    +0.000 N 
ATOM     13  C10 UNL     1     152.004 162.370 170.648  0.00  0.00    +0.000 C 
ATOM     14  C11 UNL     1     152.698 161.059 170.321  0.00  0.00    +0.000 C 
ATOM     15  N3  UNL     1     154.125 161.350 170.264  0.00  0.00    +0.000 NA
ATOM     16  C12 UNL     1     154.434 162.645 169.709  0.00  0.00    +0.000 C 
ATOM     17  C13 UNL     1     153.355 163.226 168.811  0.00  0.00    +0.000 C 
ENDROOT
BRANCH   1  19
ATOM     18  F1  UNL     1     145.715 165.764 164.541  0.00  0.00    +0.000 F 
ATOM     19  C1  UNL     1     145.624 166.375 165.782  0.00  0.00    +0.000 C 
ATOM     20  F2  UNL     1     144.303 166.227 166.200  0.00  0.00    +0.000 F 
ATOM     21  F3  UNL     1     146.012 167.669 165.656  0.00  0.00    +0.000 F 
ENDBRANCH   1  19
BRANCH   3  22
ATOM     22  N4  UNL     1     146.341 163.757 169.845  0.00  0.00    +0.000 N 
ATOM     23  O2  UNL     1     145.893 162.457 169.832  0.00  0.00    +0.000 OA
ATOM     24  O3  UNL     1     146.298 164.351 170.912  0.00  0.00    +0.000 OA
ENDBRANCH   3  22
BRANCH  15  25
ATOM     25  C14 UNL     1     154.813 160.270 169.575  0.00  0.00    +0.000 C 
BRANCH  25  26
ATOM     26  C15 UNL     1     156.233 160.152 170.038  0.00  0.00    +0.000 C 
ATOM     27  C16 UNL     1     156.403 158.858 170.807  0.00  0.00    +0.000 C 
ATOM     28  C17 UNL     1     157.831 158.495 171.010  0.00  0.00    +0.000 C 
ATOM     29  C18 UNL     1     158.641 158.506 169.723  0.00  0.00    +0.000 C 
ATOM     30  C19 UNL     1     158.522 159.920 169.180  0.00  0.00    +0.000 C 
ATOM     31  C20 UNL     1     157.079 160.101 168.758  0.00  0.00    +0.000 C 
ENDBRANCH  25  26
ENDBRANCH  15  25
TORSDOF 4
ENDMDL
MODEL 3
REMARK VINA RESULT:      -6.8      2.555      3.058
REMARK  Name = ./3D_structures\o21_MMV1578885_3D.pdb
REMARK  4 active torsions:
REMARK  status: ('A' for Active; 'I' for Inactive)
REMARK    1  A    between atoms: C1_2  and  C2_5
REMARK    2  A    between atoms: C4_7  and  N4_29
REMARK    3  A    between atoms: N3_19  and  C14_22
REMARK    4  A    between atoms: C14_22  and  C15_23
REMARK                            x       y       z     vdW  Elec       q    Type
REMARK                         _______ _______ _______ _____ _____    ______ ____
ROOT
ATOM      1  C2  UNL     1     147.254 164.981 166.859  0.00  0.00    +0.000 A 
ATOM      2  C3  UNL     1     146.934 163.644 166.897  0.00  0.00    +0.000 A 
ATOM      3  C4  UNL     1     147.716 162.826 167.710  0.00  0.00    +0.000 A 
ATOM      4  C5  UNL     1     148.765 163.347 168.439  0.00  0.00    +0.000 A 
ATOM      5  S1  UNL     1     149.768 162.419 169.446  0.00  0.00    +0.000 S 
ATOM      6  C6  UNL     1     150.999 163.333 170.215  0.00  0.00    +0.000 A 
ATOM      7  N1  UNL     1     150.957 164.633 169.889  0.00  0.00    +0.000 NA
ATOM      8  C7  UNL     1     150.111 165.240 169.084  0.00  0.00    +0.000 A 
ATOM      9  O1  UNL     1     150.285 166.505 168.940  0.00  0.00    +0.000 OA
ATOM     10  C8  UNL     1     149.070 164.687 168.386  0.00  0.00    +0.000 A 
ATOM     11  C9  UNL     1     148.302 165.543 167.577  0.00  0.00    +0.000 A 
ATOM     12  N2  UNL     1     151.965 162.843 171.086  0.00  0.00    +0.000 N 
ATOM     13  C10 UNL     1     152.026 161.446 171.467  0.00  0.00    +0.000 C 
ATOM     14  C11 UNL     1     153.461 161.049 171.166  0.00  0.00    +0.000 C 
ATOM     15  N3  UNL     1     154.283 161.643 172.214  0.00  0.00    +0.000 NA
ATOM     16  C12 UNL     1     153.826 162.941 172.648  0.00  0.00    +0.000 C 
ATOM     17  C13 UNL     1     152.972 163.685 171.636  0.00  0.00    +0.000 C 
ENDROOT
BRANCH   1  19
ATOM     18  F1  UNL     1     145.444 166.437 166.742  0.00  0.00    +0.000 F 
ATOM     19  C1  UNL     1     146.471 165.879 165.998  0.00  0.00    +0.000 C 
ATOM     20  F2  UNL     1     147.278 166.936 165.580  0.00  0.00    +0.000 F 
ATOM     21  F3  UNL     1     145.928 165.173 164.974  0.00  0.00    +0.000 F 
ENDBRANCH   1  19
BRANCH   3  22
ATOM     22  N4  UNL     1     147.429 161.436 167.792  0.00  0.00    +0.000 N 
ATOM     23  O2  UNL     1     148.030 160.507 166.974  0.00  0.00    +0.000 OA
ATOM     24  O3  UNL     1     146.629 161.019 168.616  0.00  0.00    +0.000 OA
ENDBRANCH   3  22
BRANCH  15  25
ATOM     25  C14 UNL     1     155.674 161.655 171.791  0.00  0.00    +0.000 C 
BRANCH  25  26
ATOM     26  C15 UNL     1     156.004 160.436 170.986  0.00  0.00    +0.000 C 
ATOM     27  C16 UNL     1     157.136 160.756 170.031  0.00  0.00    +0.000 C 
ATOM     28  C17 UNL     1     157.750 159.537 169.442  0.00  0.00    +0.000 C 
ATOM     29  C18 UNL     1     158.156 158.506 170.483  0.00  0.00    +0.000 C 
ATOM     30  C19 UNL     1     156.878 158.153 171.225  0.00  0.00    +0.000 C 
ATOM     31  C20 UNL     1     156.476 159.387 172.004  0.00  0.00    +0.000 C 
ENDBRANCH  25  26
ENDBRANCH  15  25
TORSDOF 4
ENDMDL
MODEL 4
REMARK VINA RESULT:      -6.8      6.129     10.355
REMARK  Name = ./3D_structures\o21_MMV1578885_3D.pdb
REMARK  4 active torsions:
REMARK  status: ('A' for Active; 'I' for Inactive)
REMARK    1  A    between atoms: C1_2  and  C2_5
REMARK    2  A    between atoms: C4_7  and  N4_29
REMARK    3  A    between atoms: N3_19  and  C14_22
REMARK    4  A    between atoms: C14_22  and  C15_23
REMARK                            x       y       z     vdW  Elec       q    Type
REMARK                         _______ _______ _______ _____ _____    ______ ____
ROOT
ATOM      1  C2  UNL     1     158.364 158.567 168.019  0.00  0.00    +0.000 A 
ATOM      2  C3  UNL     1     158.311 158.522 169.392  0.00  0.00    +0.000 A 
ATOM      3  C4  UNL     1     157.095 158.841 169.992  0.00  0.00    +0.000 A 
ATOM      4  C5  UNL     1     155.999 159.190 169.230  0.00  0.00    +0.000 A 
ATOM      5  S1  UNL     1     154.486 159.600 169.882  0.00  0.00    +0.000 S 
ATOM      6  C6  UNL     1     153.317 160.005 168.695  0.00  0.00    +0.000 A 
ATOM      7  N1  UNL     1     153.798 159.926 167.447  0.00  0.00    +0.000 NA
ATOM      8  C7  UNL     1     155.012 159.586 167.066  0.00  0.00    +0.000 A 
ATOM      9  O1  UNL     1     155.222 159.586 165.798  0.00  0.00    +0.000 OA
ATOM     10  C8  UNL     1     156.073 159.232 167.857  0.00  0.00    +0.000 A 
ATOM     11  C9  UNL     1     157.284 158.914 167.217  0.00  0.00    +0.000 A 
ATOM     12  N2  UNL     1     152.001 160.383 168.932  0.00  0.00    +0.000 N 
ATOM     13  C10 UNL     1     151.448 160.464 170.270  0.00  0.00    +0.000 C 
ATOM     14  C11 UNL     1     150.861 161.864 170.337  0.00  0.00    +0.000 C 
ATOM     15  N3  UNL     1     149.635 161.837 169.548  0.00  0.00    +0.000 NA
ATOM     16  C12 UNL     1     149.713 160.996 168.378  0.00  0.00    +0.000 C 
ATOM     17  C13 UNL     1     151.123 160.743 167.871  0.00  0.00    +0.000 C 
ENDROOT
BRANCH   1  19
ATOM     18  F1  UNL     1     159.453 157.152 166.529  0.00  0.00    +0.000 F 
ATOM     19  C1  UNL     1     159.633 158.259 167.342  0.00  0.00    +0.000 C 
ATOM     20  F2  UNL     1     159.974 159.317 166.501  0.00  0.00    +0.000 F 
ATOM     21  F3  UNL     1     160.585 157.969 168.264  0.00  0.00    +0.000 F 
ENDBRANCH   1  19
BRANCH   3  22
ATOM     22  N4  UNL     1     156.979 158.808 171.408  0.00  0.00    +0.000 N 
ATOM     23  O2  UNL     1     157.132 159.929 172.190  0.00  0.00    +0.000 OA
ATOM     24  O3  UNL     1     156.727 157.758 171.981  0.00  0.00    +0.000 OA
ENDBRANCH   3  22
BRANCH  15  25
ATOM     25  C14 UNL     1     149.233 163.197 169.231  0.00  0.00    +0.000 C 
BRANCH  25  26
ATOM     26  C15 UNL     1     147.913 163.219 168.523  0.00  0.00    +0.000 C 
ATOM     27  C16 UNL     1     146.829 163.632 169.497  0.00  0.00    +0.000 C 
ATOM     28  C17 UNL     1     145.560 164.006 168.818  0.00  0.00    +0.000 C 
ATOM     29  C18 UNL     1     145.752 165.029 167.709  0.00  0.00    +0.000 C 
ATOM     30  C19 UNL     1     146.715 164.386 166.725  0.00  0.00    +0.000 C 
ATOM     31  C20 UNL     1     148.052 164.288 167.429  0.00  0.00    +0.000 C 
ENDBRANCH  25  26
ENDBRANCH  15  25
TORSDOF 4
ENDMDL
MODEL 5
REMARK VINA RESULT:      -6.7      2.409      4.390
REMARK  Name = ./3D_structures\o21_MMV1578885_3D.pdb
REMARK  4 active torsions:
REMARK  status: ('A' for Active; 'I' for Inactive)
REMARK    1  A    between atoms: C1_2  and  C2_5
REMARK    2  A    between atoms: C4_7  and  N4_29
REMARK    3  A    between atoms: N3_19  and  C14_22
REMARK    4  A    between atoms: C14_22  and  C15_23
REMARK                            x       y       z     vdW  Elec       q    Type
REMARK                         _______ _______ _______ _____ _____    ______ ____
ROOT
ATOM      1  C2  UNL     1     147.899 164.710 166.986  0.00  0.00    +0.000 A 
ATOM      2  C3  UNL     1     148.921 165.398 166.375  0.00  0.00    +0.000 A 
ATOM      3  C4  UNL     1     150.178 164.797 166.368  0.00  0.00    +0.000 A 
ATOM      4  C5  UNL     1     150.377 163.566 166.957  0.00  0.00    +0.000 A 
ATOM      5  S1  UNL     1     151.876 162.770 167.000  0.00  0.00    +0.000 S 
ATOM      6  C6  UNL     1     151.826 161.261 167.812  0.00  0.00    +0.000 A 
ATOM      7  N1  UNL     1     150.604 160.963 168.275  0.00  0.00    +0.000 NA
ATOM      8  C7  UNL     1     149.503 161.676 168.172  0.00  0.00    +0.000 A 
ATOM      9  O1  UNL     1     148.451 161.163 168.705  0.00  0.00    +0.000 OA
ATOM     10  C8  UNL     1     149.342 162.894 167.566  0.00  0.00    +0.000 A 
ATOM     11  C9  UNL     1     148.060 163.470 167.590  0.00  0.00    +0.000 A 
ATOM     12  N2  UNL     1     152.896 160.395 168.006  0.00  0.00    +0.000 N 
ATOM     13  C10 UNL     1     154.225 160.682 167.504  0.00  0.00    +0.000 C 
ATOM     14  C11 UNL     1     155.115 160.534 168.726  0.00  0.00    +0.000 C 
ATOM     15  N3  UNL     1     155.235 159.103 168.979  0.00  0.00    +0.000 NA
ATOM     16  C12 UNL     1     154.031 158.359 168.701  0.00  0.00    +0.000 C 
ATOM     17  C13 UNL     1     152.754 159.182 168.736  0.00  0.00    +0.000 C 
ENDROOT
BRANCH   1  19
ATOM     18  F1  UNL     1     146.587 166.527 166.365  0.00  0.00    +0.000 F 
ATOM     19  C1  UNL     1     146.560 165.315 167.036  0.00  0.00    +0.000 C 
ATOM     20  F2  UNL     1     145.661 164.501 166.349  0.00  0.00    +0.000 F 
ATOM     21  F3  UNL     1     146.209 165.543 168.327  0.00  0.00    +0.000 F 
ENDBRANCH   1  19
BRANCH   3  22
ATOM     22  N4  UNL     1     151.271 165.460 165.748  0.00  0.00    +0.000 N 
ATOM     23  O2  UNL     1     152.128 166.284 166.440  0.00  0.00    +0.000 OA
ATOM     24  O3  UNL     1     151.489 165.306 164.555  0.00  0.00    +0.000 OA
ENDBRANCH   3  22
BRANCH  15  25
ATOM     25  C14 UNL     1     155.722 158.889 170.332  0.00  0.00    +0.000 C 
BRANCH  25  26
ATOM     26  C15 UNL     1     155.566 160.125 171.164  0.00  0.00    +0.000 C 
ATOM     27  C16 UNL     1     154.432 159.927 172.148  0.00  0.00    +0.000 C 
ATOM     28  C17 UNL     1     154.424 160.951 173.227  0.00  0.00    +0.000 C 
ATOM     29  C18 UNL     1     155.767 161.098 173.924  0.00  0.00    +0.000 C 
ATOM     30  C19 UNL     1     156.752 161.481 172.833  0.00  0.00    +0.000 C 
ATOM     31  C20 UNL     1     156.889 160.273 171.930  0.00  0.00    +0.000 C 
ENDBRANCH  25  26
ENDBRANCH  15  25
TORSDOF 4
ENDMDL
MODEL 6
REMARK VINA RESULT:      -6.5      4.777      9.387
REMARK  Name = ./3D_structures\o21_MMV1578885_3D.pdb
REMARK  4 active torsions:
REMARK  status: ('A' for Active; 'I' for Inactive)
REMARK    1  A    between atoms: C1_2  and  C2_5
REMARK    2  A    between atoms: C4_7  and  N4_29
REMARK    3  A    between atoms: N3_19  and  C14_22
REMARK    4  A    between atoms: C14_22  and  C15_23
REMARK                            x       y       z     vdW  Elec       q    Type
REMARK                         _______ _______ _______ _____ _____    ______ ____
ROOT
ATOM      1  C2  UNL     1     153.397 159.280 168.097  0.00  0.00    +0.000 A 
ATOM      2  C3  UNL     1     153.831 160.186 167.158  0.00  0.00    +0.000 A 
ATOM      3  C4  UNL     1     152.992 161.262 166.878  0.00  0.00    +0.000 A 
ATOM      4  C5  UNL     1     151.779 161.400 167.519  0.00  0.00    +0.000 A 
ATOM      5  S1  UNL     1     150.696 162.675 167.230  0.00  0.00    +0.000 S 
ATOM      6  C6  UNL     1     149.260 162.578 168.161  0.00  0.00    +0.000 A 
ATOM      7  N1  UNL     1     149.237 161.506 168.966  0.00  0.00    +0.000 NA
ATOM      8  C7  UNL     1     150.158 160.576 169.103  0.00  0.00    +0.000 A 
ATOM      9  O1  UNL     1     149.894 159.646 169.950  0.00  0.00    +0.000 OA
ATOM     10  C8  UNL     1     151.361 160.481 168.454  0.00  0.00    +0.000 A 
ATOM     11  C9  UNL     1     152.183 159.383 168.764  0.00  0.00    +0.000 A 
ATOM     12  N2  UNL     1     148.198 163.474 168.132  0.00  0.00    +0.000 N 
ATOM     13  C10 UNL     1     148.200 164.649 167.283  0.00  0.00    +0.000 C 
ATOM     14  C11 UNL     1     146.893 164.546 166.516  0.00  0.00    +0.000 C 
ATOM     15  N3  UNL     1     145.834 164.902 167.452  0.00  0.00    +0.000 NA
ATOM     16  C12 UNL     1     146.073 164.450 168.802  0.00  0.00    +0.000 C 
ATOM     17  C13 UNL     1     147.028 163.274 168.918  0.00  0.00    +0.000 C 
ENDROOT
BRANCH   1  19
ATOM     18  F1  UNL     1     153.469 157.163 169.058  0.00  0.00    +0.000 F 
ATOM     19  C1  UNL     1     154.239 158.116 168.410  0.00  0.00    +0.000 C 
ATOM     20  F2  UNL     1     154.676 157.532 167.223  0.00  0.00    +0.000 F 
ATOM     21  F3  UNL     1     155.249 158.490 169.235  0.00  0.00    +0.000 F 
ENDBRANCH   1  19
BRANCH   3  22
ATOM     22  N4  UNL     1     153.390 162.232 165.918  0.00  0.00    +0.000 N 
ATOM     23  O2  UNL     1     153.013 162.165 164.597  0.00  0.00    +0.000 OA
ATOM     24  O3  UNL     1     154.087 163.179 166.252  0.00  0.00    +0.000 OA
ENDBRANCH   3  22
BRANCH  15  25
ATOM     25  C14 UNL     1     144.554 164.450 166.932  0.00  0.00    +0.000 C 
BRANCH  25  26
ATOM     26  C15 UNL     1     144.735 163.336 165.946  0.00  0.00    +0.000 C 
ATOM     27  C16 UNL     1     144.244 162.040 166.557  0.00  0.00    +0.000 C 
ATOM     28  C17 UNL     1     144.070 160.961 165.549  0.00  0.00    +0.000 C 
ATOM     29  C18 UNL     1     143.229 161.385 164.355  0.00  0.00    +0.000 C 
ATOM     30  C19 UNL     1     143.957 162.572 163.746  0.00  0.00    +0.000 C 
ATOM     31  C20 UNL     1     143.850 163.704 164.746  0.00  0.00    +0.000 C 
ENDBRANCH  25  26
ENDBRANCH  15  25
TORSDOF 4
ENDMDL
MODEL 7
REMARK VINA RESULT:      -6.4      5.668      9.930
REMARK  Name = ./3D_structures\o21_MMV1578885_3D.pdb
REMARK  4 active torsions:
REMARK  status: ('A' for Active; 'I' for Inactive)
REMARK    1  A    between atoms: C1_2  and  C2_5
REMARK    2  A    between atoms: C4_7  and  N4_29
REMARK    3  A    between atoms: N3_19  and  C14_22
REMARK    4  A    between atoms: C14_22  and  C15_23
REMARK                            x       y       z     vdW  Elec       q    Type
REMARK                         _______ _______ _______ _____ _____    ______ ____
ROOT
ATOM      1  C2  UNL     1     155.623 158.958 170.504  0.00  0.00    +0.000 A 
ATOM      2  C3  UNL     1     155.616 159.125 169.138  0.00  0.00    +0.000 A 
ATOM      3  C4  UNL     1     154.791 160.123 168.625  0.00  0.00    +0.000 A 
ATOM      4  C5  UNL     1     154.015 160.900 169.459  0.00  0.00    +0.000 A 
ATOM      5  S1  UNL     1     152.978 162.129 168.914  0.00  0.00    +0.000 S 
ATOM      6  C6  UNL     1     152.127 162.917 170.177  0.00  0.00    +0.000 A 
ATOM      7  N1  UNL     1     152.429 162.427 171.387  0.00  0.00    +0.000 NA
ATOM      8  C7  UNL     1     153.268 161.457 171.683  0.00  0.00    +0.000 A 
ATOM      9  O1  UNL     1     153.381 161.176 172.932  0.00  0.00    +0.000 OA
ATOM     10  C8  UNL     1     154.033 160.715 170.822  0.00  0.00    +0.000 A 
ATOM     11  C9  UNL     1     154.855 159.719 171.377  0.00  0.00    +0.000 A 
ATOM     12  N2  UNL     1     151.211 163.952 170.031  0.00  0.00    +0.000 N 
ATOM     13  C10 UNL     1     150.875 164.511 168.736  0.00  0.00    +0.000 C 
ATOM     14  C11 UNL     1     149.358 164.436 168.690  0.00  0.00    +0.000 C 
ATOM     15  N3  UNL     1     148.865 165.491 169.567  0.00  0.00    +0.000 NA
ATOM     16  C12 UNL     1     149.677 165.700 170.741  0.00  0.00    +0.000 C 
ATOM     17  C13 UNL     1     150.525 164.507 171.147  0.00  0.00    +0.000 C 
ENDROOT
BRANCH   1  19
ATOM     18  F1  UNL     1     156.449 158.031 172.470  0.00  0.00    +0.000 F 
ATOM     19  C1  UNL     1     156.462 157.903 171.090  0.00  0.00    +0.000 C 
ATOM     20  F2  UNL     1     155.905 156.658 170.802  0.00  0.00    +0.000 F 
ATOM     21  F3  UNL     1     157.740 158.039 170.655  0.00  0.00    +0.000 F 
ENDBRANCH   1  19
BRANCH   3  22
ATOM     22  N4  UNL     1     154.746 160.345 167.221  0.00  0.00    +0.000 N 
ATOM     23  O2  UNL     1     153.827 159.731 166.404  0.00  0.00    +0.000 OA
ATOM     24  O3  UNL     1     155.538 161.112 166.693  0.00  0.00    +0.000 OA
ENDBRANCH   3  22
BRANCH  15  25
ATOM     25  C14 UNL     1     147.471 165.239 169.891  0.00  0.00    +0.000 C 
BRANCH  25  26
ATOM     26  C15 UNL     1     146.825 164.367 168.858  0.00  0.00    +0.000 C 
ATOM     27  C16 UNL     1     146.073 163.246 169.546  0.00  0.00    +0.000 C 
ATOM     28  C17 UNL     1     145.135 162.540 168.633  0.00  0.00    +0.000 C 
ATOM     29  C18 UNL     1     144.201 163.482 167.889  0.00  0.00    +0.000 C 
ATOM     30  C19 UNL     1     145.106 164.416 167.104  0.00  0.00    +0.000 C 
ATOM     31  C20 UNL     1     145.828 165.274 168.122  0.00  0.00    +0.000 C 
ENDBRANCH  25  26
ENDBRANCH  15  25
TORSDOF 4
ENDMDL
MODEL 8
REMARK VINA RESULT:      -6.3      5.725     10.086
REMARK  Name = ./3D_structures\o21_MMV1578885_3D.pdb
REMARK  4 active torsions:
REMARK  status: ('A' for Active; 'I' for Inactive)
REMARK    1  A    between atoms: C1_2  and  C2_5
REMARK    2  A    between atoms: C4_7  and  N4_29
REMARK    3  A    between atoms: N3_19  and  C14_22
REMARK    4  A    between atoms: C14_22  and  C15_23
REMARK                            x       y       z     vdW  Elec       q    Type
REMARK                         _______ _______ _______ _____ _____    ______ ____
ROOT
ATOM      1  C2  UNL     1     156.879 159.192 169.594  0.00  0.00    +0.000 A 
ATOM      2  C3  UNL     1     156.771 159.982 170.715  0.00  0.00    +0.000 A 
ATOM      3  C4  UNL     1     155.581 160.685 170.885  0.00  0.00    +0.000 A 
ATOM      4  C5  UNL     1     154.563 160.589 169.960  0.00  0.00    +0.000 A 
ATOM      5  S1  UNL     1     153.087 161.417 170.089  0.00  0.00    +0.000 S 
ATOM      6  C6  UNL     1     152.017 161.117 168.784  0.00  0.00    +0.000 A 
ATOM      7  N1  UNL     1     152.530 160.271 167.879  0.00  0.00    +0.000 NA
ATOM      8  C7  UNL     1     153.707 159.683 167.896  0.00  0.00    +0.000 A 
ATOM      9  O1  UNL     1     153.961 158.909 166.901  0.00  0.00    +0.000 OA
ATOM     10  C8  UNL     1     154.690 159.795 168.843  0.00  0.00    +0.000 A 
ATOM     11  C9  UNL     1     155.877 159.070 168.639  0.00  0.00    +0.000 A 
ATOM     12  N2  UNL     1     150.747 161.658 168.619  0.00  0.00    +0.000 N 
ATOM     13  C10 UNL     1     150.160 162.563 169.587  0.00  0.00    +0.000 C 
ATOM     14  C11 UNL     1     149.742 163.764 168.755  0.00  0.00    +0.000 C 
ATOM     15  N3  UNL     1     148.550 163.361 168.018  0.00  0.00    +0.000 NA
ATOM     16  C12 UNL     1     148.570 161.985 167.586  0.00  0.00    +0.000 C 
ATOM     17  C13 UNL     1     149.956 161.375 167.470  0.00  0.00    +0.000 C 
ENDROOT
BRANCH   1  19
ATOM     18  F1  UNL     1     157.840 157.310 168.623  0.00  0.00    +0.000 F 
ATOM     19  C1  UNL     1     158.125 158.448 169.360  0.00  0.00    +0.000 C 
ATOM     20  F2  UNL     1     158.983 159.221 168.579  0.00  0.00    +0.000 F 
ATOM     21  F3  UNL     1     158.663 158.071 170.547  0.00  0.00    +0.000 F 
ENDBRANCH   1  19
BRANCH   3  22
ATOM     22  N4  UNL     1     155.412 161.514 172.027  0.00  0.00    +0.000 N 
ATOM     23  O2  UNL     1     154.685 161.120 173.127  0.00  0.00    +0.000 OA
ATOM     24  O3  UNL     1     155.926 162.622 172.067  0.00  0.00    +0.000 OA
ENDBRANCH   3  22
BRANCH  15  25
ATOM     25  C14 UNL     1     148.324 164.286 166.920  0.00  0.00    +0.000 C 
BRANCH  25  26
ATOM     26  C15 UNL     1     147.028 165.017 167.088  0.00  0.00    +0.000 C 
ATOM     27  C16 UNL     1     147.012 166.228 166.177  0.00  0.00    +0.000 C 
ATOM     28  C17 UNL     1     145.654 166.813 166.024  0.00  0.00    +0.000 C 
ATOM     29  C18 UNL     1     144.600 165.790 165.632  0.00  0.00    +0.000 C 
ATOM     30  C19 UNL     1     144.611 164.750 166.739  0.00  0.00    +0.000 C 
ATOM     31  C20 UNL     1     145.939 164.029 166.642  0.00  0.00    +0.000 C 
ENDBRANCH  25  26
ENDBRANCH  15  25
TORSDOF 4
ENDMDL
MODEL 9
REMARK VINA RESULT:      -6.2      9.432     12.024
REMARK  Name = ./3D_structures\o21_MMV1578885_3D.pdb
REMARK  4 active torsions:
REMARK  status: ('A' for Active; 'I' for Inactive)
REMARK    1  A    between atoms: C1_2  and  C2_5
REMARK    2  A    between atoms: C4_7  and  N4_29
REMARK    3  A    between atoms: N3_19  and  C14_22
REMARK    4  A    between atoms: C14_22  and  C15_23
REMARK                            x       y       z     vdW  Elec       q    Type
REMARK                         _______ _______ _______ _____ _____    ______ ____
ROOT
ATOM      1  C2  UNL     1     157.969 158.789 169.410  0.00  0.00    +0.000 A 
ATOM      2  C3  UNL     1     159.298 159.028 169.147  0.00  0.00    +0.000 A 
ATOM      3  C4  UNL     1     159.811 158.521 167.956  0.00  0.00    +0.000 A 
ATOM      4  C5  UNL     1     159.013 157.808 167.087  0.00  0.00    +0.000 A 
ATOM      5  S1  UNL     1     159.562 157.150 165.621  0.00  0.00    +0.000 S 
ATOM      6  C6  UNL     1     158.351 156.301 164.755  0.00  0.00    +0.000 A 
ATOM      7  N1  UNL     1     157.168 156.302 165.386  0.00  0.00    +0.000 NA
ATOM      8  C7  UNL     1     156.864 156.862 166.538  0.00  0.00    +0.000 A 
ATOM      9  O1  UNL     1     155.647 156.719 166.927  0.00  0.00    +0.000 OA
ATOM     10  C8  UNL     1     157.687 157.576 167.368  0.00  0.00    +0.000 A 
ATOM     11  C9  UNL     1     157.133 158.074 168.561  0.00  0.00    +0.000 A 
ATOM     12  N2  UNL     1     158.510 155.658 163.534  0.00  0.00    +0.000 N 
ATOM     13  C10 UNL     1     159.773 155.651 162.821  0.00  0.00    +0.000 C 
ATOM     14  C11 UNL     1     160.031 154.178 162.551  0.00  0.00    +0.000 C 
ATOM     15  N3  UNL     1     159.123 153.789 161.479  0.00  0.00    +0.000 NA
ATOM     16  C12 UNL     1     157.835 154.436 161.542  0.00  0.00    +0.000 C 
ATOM     17  C13 UNL     1     157.444 154.941 162.920  0.00  0.00    +0.000 C 
ENDROOT
BRANCH   1  19
ATOM     18  F1  UNL     1     157.761 160.608 170.843  0.00  0.00    +0.000 F 
ATOM     19  C1  UNL     1     157.388 159.285 170.665  0.00  0.00    +0.000 C 
ATOM     20  F2  UNL     1     155.998 159.276 170.565  0.00  0.00    +0.000 F 
ATOM     21  F3  UNL     1     157.862 158.559 171.709  0.00  0.00    +0.000 F 
ENDBRANCH   1  19
BRANCH   3  22
ATOM     22  N4  UNL     1     161.177 158.742 167.629  0.00  0.00    +0.000 N 
ATOM     23  O2  UNL     1     162.126 157.748 167.704  0.00  0.00    +0.000 OA
ATOM     24  O3  UNL     1     161.552 159.844 167.257  0.00  0.00    +0.000 OA
ENDBRANCH   3  22
BRANCH  15  25
ATOM     25  C14 UNL     1     159.017 152.340 161.435  0.00  0.00    +0.000 C 
BRANCH  25  26
ATOM     26  C15 UNL     1     157.724 151.875 162.031  0.00  0.00    +0.000 C 
ATOM     27  C16 UNL     1     157.093 150.844 161.118  0.00  0.00    +0.000 C 
ATOM     28  C17 UNL     1     155.996 150.088 161.780  0.00  0.00    +0.000 C 
ATOM     29  C18 UNL     1     156.401 149.494 163.119  0.00  0.00    +0.000 C 
ATOM     30  C19 UNL     1     156.826 150.674 163.976  0.00  0.00    +0.000 C 
ATOM     31  C20 UNL     1     158.102 151.214 163.365  0.00  0.00    +0.000 C 
ENDBRANCH  25  26
ENDBRANCH  15  25
TORSDOF 4
ENDMDL
