MODEL 1
REMARK VINA RESULT:      -6.7      0.000      0.000
REMARK  Name = ./3D_structures\o24_MMV452821_3D.pdb
REMARK  5 active torsions:
REMARK  status: ('A' for Active; 'I' for Inactive)
REMARK    1  A    between atoms: O1_1  and  C1_2
REMARK    2  A    between atoms: C1_2  and  C2_4
REMARK    3  A    between atoms: C2_4  and  C3_5
REMARK    4  A    between atoms: C2_4  and  N2_15
REMARK    5  A    between atoms: C3_5  and  C4_6
REMARK                            x       y       z     vdW  Elec       q    Type
REMARK                         _______ _______ _______ _____ _____    ______ ____
ROOT
ATOM      1  C2  UNL     1     147.925 165.080 168.568  0.00  0.00    +0.000 C 
ENDROOT
BRANCH   1   2
ATOM      2  N2  UNL     1     146.634 164.784 168.000  0.00  0.00    +0.000 N 
ATOM      3  C12 UNL     1     145.937 165.544 166.987  0.00  0.00    +0.000 C 
ATOM      4  O3  UNL     1     146.411 166.605 166.488  0.00  0.00    +0.000 OA
ATOM      5  C13 UNL     1     144.684 164.904 166.672  0.00  0.00    +0.000 A 
ATOM      6  C14 UNL     1     143.678 165.210 165.787  0.00  0.00    +0.000 A 
ATOM      7  C15 UNL     1     142.561 164.435 165.649  0.00  0.00    +0.000 A 
ATOM      8  C16 UNL     1     142.426 163.293 166.426  0.00  0.00    +0.000 A 
ATOM      9  C17 UNL     1     143.418 162.964 167.320  0.00  0.00    +0.000 A 
ATOM     10  C18 UNL     1     144.550 163.764 167.448  0.00  0.00    +0.000 A 
ATOM     11  C19 UNL     1     145.764 163.689 168.275  0.00  0.00    +0.000 C 
ATOM     12  O4  UNL     1     145.998 162.773 169.114  0.00  0.00    +0.000 OA
ENDBRANCH   1   2
BRANCH   1  13
ATOM     13  C1  UNL     1     147.856 165.174 170.011  0.00  0.00    +0.000 C 
ATOM     14  O2  UNL     1     148.838 165.059 170.810  0.00  0.00    +0.000 OA
BRANCH  13  15
ATOM     15  O1  UNL     1     146.626 165.412 170.625  0.00  0.00    +0.000 OA
ATOM     16  H1  UNL     1     145.875 164.728 170.650  0.00  0.00    +0.000 HD
ENDBRANCH  13  15
ENDBRANCH   1  13
BRANCH   1  17
ATOM     17  C3  UNL     1     148.922 164.086 168.021  0.00  0.00    +0.000 C 
BRANCH  17  18
ATOM     18  C4  UNL     1     149.687 164.602 166.884  0.00  0.00    +0.000 A 
ATOM     19  C5  UNL     1     149.572 165.835 166.286  0.00  0.00    +0.000 A 
ATOM     20  N1  UNL     1     150.446 165.914 165.253  0.00  0.00    +0.000 N 
ATOM     21  C6  UNL     1     151.115 164.745 165.189  0.00  0.00    +0.000 A 
ATOM     22  C7  UNL     1     152.104 164.265 164.350  0.00  0.00    +0.000 A 
ATOM     23  C8  UNL     1     152.645 162.988 164.490  0.00  0.00    +0.000 A 
ATOM     24  C9  UNL     1     152.189 162.164 165.496  0.00  0.00    +0.000 A 
ATOM     25  C10 UNL     1     151.199 162.632 166.342  0.00  0.00    +0.000 A 
ATOM     26  C11 UNL     1     150.657 163.918 166.194  0.00  0.00    +0.000 A 
ATOM     27  H6  UNL     1     150.573 166.752 164.609  0.00  0.00    +0.000 HD
ENDBRANCH  17  18
ENDBRANCH   1  17
TORSDOF 5
ENDMDL
MODEL 2
REMARK VINA RESULT:      -6.6      0.353      1.782
REMARK  Name = ./3D_structures\o24_MMV452821_3D.pdb
REMARK  5 active torsions:
REMARK  status: ('A' for Active; 'I' for Inactive)
REMARK    1  A    between atoms: O1_1  and  C1_2
REMARK    2  A    between atoms: C1_2  and  C2_4
REMARK    3  A    between atoms: C2_4  and  C3_5
REMARK    4  A    between atoms: C2_4  and  N2_15
REMARK    5  A    between atoms: C3_5  and  C4_6
REMARK                            x       y       z     vdW  Elec       q    Type
REMARK                         _______ _______ _______ _____ _____    ______ ____
ROOT
ATOM      1  C2  UNL     1     148.282 165.098 168.632  0.00  0.00    +0.000 C 
ENDROOT
BRANCH   1   2
ATOM      2  N2  UNL     1     146.998 164.783 168.059  0.00  0.00    +0.000 N 
ATOM      3  C12 UNL     1     146.150 163.661 168.392  0.00  0.00    +0.000 C 
ATOM      4  O3  UNL     1     146.478 162.794 169.252  0.00  0.00    +0.000 OA
ATOM      5  C13 UNL     1     144.938 163.715 167.612  0.00  0.00    +0.000 A 
ATOM      6  C14 UNL     1     143.826 162.910 167.561  0.00  0.00    +0.000 A 
ATOM      7  C15 UNL     1     142.770 163.168 166.733  0.00  0.00    +0.000 A 
ATOM      8  C16 UNL     1     142.811 164.283 165.908  0.00  0.00    +0.000 A 
ATOM      9  C17 UNL     1     143.912 165.107 165.939  0.00  0.00    +0.000 A 
ATOM     10  C18 UNL     1     144.979 164.829 166.789  0.00  0.00    +0.000 A 
ATOM     11  C19 UNL     1     146.262 165.494 167.066  0.00  0.00    +0.000 C 
ATOM     12  O4  UNL     1     146.652 166.554 166.498  0.00  0.00    +0.000 OA
ENDBRANCH   1   2
BRANCH   1  13
ATOM     13  C1  UNL     1     148.202 165.206 170.073  0.00  0.00    +0.000 C 
ATOM     14  O2  UNL     1     149.171 165.057 170.883  0.00  0.00    +0.000 OA
BRANCH  13  15
ATOM     15  O1  UNL     1     146.977 165.499 170.673  0.00  0.00    +0.000 OA
ATOM     16  H1  UNL     1     146.085 165.401 170.194  0.00  0.00    +0.000 HD
ENDBRANCH  13  15
ENDBRANCH   1  13
BRANCH   1  17
ATOM     17  C3  UNL     1     149.293 164.109 168.102  0.00  0.00    +0.000 C 
BRANCH  17  18
ATOM     18  C4  UNL     1     150.019 164.599 166.928  0.00  0.00    +0.000 A 
ATOM     19  C5  UNL     1     149.980 165.862 166.385  0.00  0.00    +0.000 A 
ATOM     20  N1  UNL     1     150.779 165.903 165.290  0.00  0.00    +0.000 N 
ATOM     21  C6  UNL     1     151.325 164.680 165.134  0.00  0.00    +0.000 A 
ATOM     22  C7  UNL     1     152.199 164.146 164.205  0.00  0.00    +0.000 A 
ATOM     23  C8  UNL     1     152.623 162.819 164.258  0.00  0.00    +0.000 A 
ATOM     24  C9  UNL     1     152.165 162.000 165.266  0.00  0.00    +0.000 A 
ATOM     25  C10 UNL     1     151.289 162.522 166.202  0.00  0.00    +0.000 A 
ATOM     26  C11 UNL     1     150.865 163.858 166.142  0.00  0.00    +0.000 A 
ATOM     27  H6  UNL     1     150.939 166.752 164.669  0.00  0.00    +0.000 HD
ENDBRANCH  17  18
ENDBRANCH   1  17
TORSDOF 5
ENDMDL
MODEL 3
REMARK VINA RESULT:      -6.5     22.129     24.518
REMARK  Name = ./3D_structures\o24_MMV452821_3D.pdb
REMARK  5 active torsions:
REMARK  status: ('A' for Active; 'I' for Inactive)
REMARK    1  A    between atoms: O1_1  and  C1_2
REMARK    2  A    between atoms: C1_2  and  C2_4
REMARK    3  A    between atoms: C2_4  and  C3_5
REMARK    4  A    between atoms: C2_4  and  N2_15
REMARK    5  A    between atoms: C3_5  and  C4_6
REMARK                            x       y       z     vdW  Elec       q    Type
REMARK                         _______ _______ _______ _____ _____    ______ ____
ROOT
ATOM      1  C2  UNL     1     161.694 144.681 171.901  0.00  0.00    +0.000 C 
ENDROOT
BRANCH   1   2
ATOM      2  N2  UNL     1     161.489 144.050 170.621  0.00  0.00    +0.000 N 
ATOM      3  C12 UNL     1     160.428 144.325 169.678  0.00  0.00    +0.000 C 
ATOM      4  O3  UNL     1     159.522 145.177 169.905  0.00  0.00    +0.000 OA
ATOM      5  C13 UNL     1     160.590 143.499 168.507  0.00  0.00    +0.000 A 
ATOM      6  C14 UNL     1     159.873 143.386 167.340  0.00  0.00    +0.000 A 
ATOM      7  C15 UNL     1     160.226 142.522 166.342  0.00  0.00    +0.000 A 
ATOM      8  C16 UNL     1     161.351 141.725 166.500  0.00  0.00    +0.000 A 
ATOM      9  C17 UNL     1     162.087 141.818 167.658  0.00  0.00    +0.000 A 
ATOM     10  C18 UNL     1     161.713 142.703 168.665  0.00  0.00    +0.000 A 
ATOM     11  C19 UNL     1     162.273 143.045 169.982  0.00  0.00    +0.000 C 
ATOM     12  O4  UNL     1     163.310 142.517 170.474  0.00  0.00    +0.000 OA
ENDBRANCH   1   2
BRANCH   1  13
ATOM     13  C1  UNL     1     161.924 143.700 172.940  0.00  0.00    +0.000 C 
ATOM     14  O2  UNL     1     162.983 143.590 173.635  0.00  0.00    +0.000 OA
BRANCH  13  15
ATOM     15  O1  UNL     1     160.926 142.774 173.242  0.00  0.00    +0.000 OA
ATOM     16  H1  UNL     1     160.163 142.968 173.886  0.00  0.00    +0.000 HD
ENDBRANCH  13  15
ENDBRANCH   1  13
BRANCH   1  17
ATOM     17  C3  UNL     1     162.764 145.735 171.743  0.00  0.00    +0.000 C 
BRANCH  17  18
ATOM     18  C4  UNL     1     162.376 146.821 170.839  0.00  0.00    +0.000 A 
ATOM     19  C5  UNL     1     161.482 147.836 171.083  0.00  0.00    +0.000 A 
ATOM     20  N1  UNL     1     161.388 148.624 169.984  0.00  0.00    +0.000 N 
ATOM     21  C6  UNL     1     162.212 148.118 169.044  0.00  0.00    +0.000 A 
ATOM     22  C7  UNL     1     162.517 148.497 167.750  0.00  0.00    +0.000 A 
ATOM     23  C8  UNL     1     163.423 147.791 166.960  0.00  0.00    +0.000 A 
ATOM     24  C9  UNL     1     164.045 146.674 167.475  0.00  0.00    +0.000 A 
ATOM     25  C10 UNL     1     163.749 146.284 168.769  0.00  0.00    +0.000 A 
ATOM     26  C11 UNL     1     162.835 146.999 169.558  0.00  0.00    +0.000 A 
ATOM     27  H6  UNL     1     160.769 149.483 169.886  0.00  0.00    +0.000 HD
ENDBRANCH  17  18
ENDBRANCH   1  17
TORSDOF 5
ENDMDL
MODEL 4
REMARK VINA RESULT:      -6.5      7.563     11.288
REMARK  Name = ./3D_structures\o24_MMV452821_3D.pdb
REMARK  5 active torsions:
REMARK  status: ('A' for Active; 'I' for Inactive)
REMARK    1  A    between atoms: O1_1  and  C1_2
REMARK    2  A    between atoms: C1_2  and  C2_4
REMARK    3  A    between atoms: C2_4  and  C3_5
REMARK    4  A    between atoms: C2_4  and  N2_15
REMARK    5  A    between atoms: C3_5  and  C4_6
REMARK                            x       y       z     vdW  Elec       q    Type
REMARK                         _______ _______ _______ _____ _____    ______ ____
ROOT
ATOM      1  C2  UNL     1     155.804 158.741 169.932  0.00  0.00    +0.000 C 
ENDROOT
BRANCH   1   2
ATOM      2  N2  UNL     1     156.431 158.147 168.779  0.00  0.00    +0.000 N 
ATOM      3  C12 UNL     1     155.798 157.321 167.775  0.00  0.00    +0.000 C 
ATOM      4  O3  UNL     1     154.573 157.012 167.825  0.00  0.00    +0.000 OA
ATOM      5  C13 UNL     1     156.763 156.945 166.772  0.00  0.00    +0.000 A 
ATOM      6  C14 UNL     1     156.670 156.193 165.626  0.00  0.00    +0.000 A 
ATOM      7  C15 UNL     1     157.739 155.973 164.804  0.00  0.00    +0.000 A 
ATOM      8  C16 UNL     1     158.971 156.524 165.128  0.00  0.00    +0.000 A 
ATOM      9  C17 UNL     1     159.092 157.281 166.270  0.00  0.00    +0.000 A 
ATOM     10  C18 UNL     1     157.992 157.496 167.096  0.00  0.00    +0.000 A 
ATOM     11  C19 UNL     1     157.787 158.245 168.346  0.00  0.00    +0.000 C 
ATOM     12  O4  UNL     1     158.693 158.886 168.949  0.00  0.00    +0.000 OA
ENDBRANCH   1   2
BRANCH   1  13
ATOM     13  C1  UNL     1     156.550 158.459 171.140  0.00  0.00    +0.000 C 
ATOM     14  O2  UNL     1     156.509 157.373 171.801  0.00  0.00    +0.000 OA
BRANCH  13  15
ATOM     15  O1  UNL     1     157.402 159.432 171.664  0.00  0.00    +0.000 OA
ATOM     16  H1  UNL     1     158.367 159.245 171.923  0.00  0.00    +0.000 HD
ENDBRANCH  13  15
ENDBRANCH   1  13
BRANCH   1  17
ATOM     17  C3  UNL     1     155.557 160.202 169.638  0.00  0.00    +0.000 C 
BRANCH  17  18
ATOM     18  C4  UNL     1     154.237 160.458 169.055  0.00  0.00    +0.000 A 
ATOM     19  C5  UNL     1     153.039 160.581 169.717  0.00  0.00    +0.000 A 
ATOM     20  N1  UNL     1     152.050 160.794 168.815  0.00  0.00    +0.000 N 
ATOM     21  C6  UNL     1     152.608 160.808 167.588  0.00  0.00    +0.000 A 
ATOM     22  C7  UNL     1     152.093 160.978 166.316  0.00  0.00    +0.000 A 
ATOM     23  C8  UNL     1     152.897 160.947 165.176  0.00  0.00    +0.000 A 
ATOM     24  C9  UNL     1     154.253 160.743 165.308  0.00  0.00    +0.000 A 
ATOM     25  C10 UNL     1     154.781 160.571 166.575  0.00  0.00    +0.000 A 
ATOM     26  C11 UNL     1     153.966 160.602 167.717  0.00  0.00    +0.000 A 
ATOM     27  H6  UNL     1     151.018 160.923 169.042  0.00  0.00    +0.000 HD
ENDBRANCH  17  18
ENDBRANCH   1  17
TORSDOF 5
ENDMDL
MODEL 5
REMARK VINA RESULT:      -6.4     11.784     14.127
REMARK  Name = ./3D_structures\o24_MMV452821_3D.pdb
REMARK  5 active torsions:
REMARK  status: ('A' for Active; 'I' for Inactive)
REMARK    1  A    between atoms: O1_1  and  C1_2
REMARK    2  A    between atoms: C1_2  and  C2_4
REMARK    3  A    between atoms: C2_4  and  C3_5
REMARK    4  A    between atoms: C2_4  and  N2_15
REMARK    5  A    between atoms: C3_5  and  C4_6
REMARK                            x       y       z     vdW  Elec       q    Type
REMARK                         _______ _______ _______ _____ _____    ______ ____
ROOT
ATOM      1  C2  UNL     1     157.961 157.146 164.834  0.00  0.00    +0.000 C 
ENDROOT
BRANCH   1   2
ATOM      2  N2  UNL     1     157.783 157.416 166.239  0.00  0.00    +0.000 N 
ATOM      3  C12 UNL     1     156.588 157.195 167.021  0.00  0.00    +0.000 C 
ATOM      4  O3  UNL     1     155.523 156.735 166.518  0.00  0.00    +0.000 OA
ATOM      5  C13 UNL     1     156.825 157.572 168.392  0.00  0.00    +0.000 A 
ATOM      6  C14 UNL     1     156.035 157.545 169.516  0.00  0.00    +0.000 A 
ATOM      7  C15 UNL     1     156.485 157.951 170.741  0.00  0.00    +0.000 A 
ATOM      8  C16 UNL     1     157.789 158.409 170.867  0.00  0.00    +0.000 A 
ATOM      9  C17 UNL     1     158.602 158.446 169.758  0.00  0.00    +0.000 A 
ATOM     10  C18 UNL     1     158.127 158.029 168.519  0.00  0.00    +0.000 A 
ATOM     11  C19 UNL     1     158.725 157.933 167.178  0.00  0.00    +0.000 C 
ATOM     12  O4  UNL     1     159.912 158.264 166.902  0.00  0.00    +0.000 OA
ENDBRANCH   1   2
BRANCH   1  13
ATOM     13  C1  UNL     1     158.514 158.291 164.144  0.00  0.00    +0.000 C 
ATOM     14  O2  UNL     1     157.855 159.300 163.735  0.00  0.00    +0.000 OA
BRANCH  13  15
ATOM     15  O1  UNL     1     159.882 158.340 163.881  0.00  0.00    +0.000 OA
ATOM     16  H1  UNL     1     160.370 157.634 163.336  0.00  0.00    +0.000 HD
ENDBRANCH  13  15
ENDBRANCH   1  13
BRANCH   1  17
ATOM     17  C3  UNL     1     158.736 155.857 164.694  0.00  0.00    +0.000 C 
BRANCH  17  18
ATOM     18  C4  UNL     1     158.099 154.896 163.789  0.00  0.00    +0.000 A 
ATOM     19  C5  UNL     1     157.338 155.170 162.678  0.00  0.00    +0.000 A 
ATOM     20  N1  UNL     1     156.917 154.005 162.126  0.00  0.00    +0.000 N 
ATOM     21  C6  UNL     1     157.403 152.996 162.876  0.00  0.00    +0.000 A 
ATOM     22  C7  UNL     1     157.296 151.620 162.795  0.00  0.00    +0.000 A 
ATOM     23  C8  UNL     1     157.905 150.769 163.717  0.00  0.00    +0.000 A 
ATOM     24  C9  UNL     1     158.642 151.304 164.750  0.00  0.00    +0.000 A 
ATOM     25  C10 UNL     1     158.757 152.680 164.844  0.00  0.00    +0.000 A 
ATOM     26  C11 UNL     1     158.141 153.530 163.913  0.00  0.00    +0.000 A 
ATOM     27  H6  UNL     1     156.308 153.912 161.259  0.00  0.00    +0.000 HD
ENDBRANCH  17  18
ENDBRANCH   1  17
TORSDOF 5
ENDMDL
MODEL 6
REMARK VINA RESULT:      -6.4      8.103     11.315
REMARK  Name = ./3D_structures\o24_MMV452821_3D.pdb
REMARK  5 active torsions:
REMARK  status: ('A' for Active; 'I' for Inactive)
REMARK    1  A    between atoms: O1_1  and  C1_2
REMARK    2  A    between atoms: C1_2  and  C2_4
REMARK    3  A    between atoms: C2_4  and  C3_5
REMARK    4  A    between atoms: C2_4  and  N2_15
REMARK    5  A    between atoms: C3_5  and  C4_6
REMARK                            x       y       z     vdW  Elec       q    Type
REMARK                         _______ _______ _______ _____ _____    ______ ____
ROOT
ATOM      1  C2  UNL     1     156.905 156.915 166.985  0.00  0.00    +0.000 C 
ENDROOT
BRANCH   1   2
ATOM      2  N2  UNL     1     156.091 158.021 166.549  0.00  0.00    +0.000 N 
ATOM      3  C12 UNL     1     154.700 158.256 166.869  0.00  0.00    +0.000 C 
ATOM      4  O3  UNL     1     154.026 157.462 167.587  0.00  0.00    +0.000 OA
ATOM      5  C13 UNL     1     154.258 159.484 166.258  0.00  0.00    +0.000 A 
ATOM      6  C14 UNL     1     153.055 160.148 166.265  0.00  0.00    +0.000 A 
ATOM      7  C15 UNL     1     152.866 161.331 165.607  0.00  0.00    +0.000 A 
ATOM      8  C16 UNL     1     153.921 161.893 164.902  0.00  0.00    +0.000 A 
ATOM      9  C17 UNL     1     155.136 161.250 164.879  0.00  0.00    +0.000 A 
ATOM     10  C18 UNL     1     155.312 160.046 165.555  0.00  0.00    +0.000 A 
ATOM     11  C19 UNL     1     156.454 159.135 165.735  0.00  0.00    +0.000 C 
ATOM     12  O4  UNL     1     157.599 159.320 165.234  0.00  0.00    +0.000 OA
ENDBRANCH   1   2
BRANCH   1  13
ATOM     13  C1  UNL     1     157.352 156.117 165.864  0.00  0.00    +0.000 C 
ATOM     14  O2  UNL     1     158.563 155.907 165.539  0.00  0.00    +0.000 OA
BRANCH  13  15
ATOM     15  O1  UNL     1     156.410 155.503 165.039  0.00  0.00    +0.000 OA
ATOM     16  H1  UNL     1     156.613 154.679 164.480  0.00  0.00    +0.000 HD
ENDBRANCH  13  15
ENDBRANCH   1  13
BRANCH   1  17
ATOM     17  C3  UNL     1     157.992 157.454 167.884  0.00  0.00    +0.000 C 
BRANCH  17  18
ATOM     18  C4  UNL     1     157.477 158.058 169.116  0.00  0.00    +0.000 A 
ATOM     19  C5  UNL     1     156.641 157.484 170.045  0.00  0.00    +0.000 A 
ATOM     20  N1  UNL     1     156.383 158.381 171.028  0.00  0.00    +0.000 N 
ATOM     21  C6  UNL     1     157.045 159.518 170.732  0.00  0.00    +0.000 A 
ATOM     22  C7  UNL     1     157.146 160.745 171.362  0.00  0.00    +0.000 A 
ATOM     23  C8  UNL     1     157.912 161.788 170.842  0.00  0.00    +0.000 A 
ATOM     24  C9  UNL     1     158.597 161.603 169.661  0.00  0.00    +0.000 A 
ATOM     25  C10 UNL     1     158.503 160.380 169.021  0.00  0.00    +0.000 A 
ATOM     26  C11 UNL     1     157.730 159.335 169.549  0.00  0.00    +0.000 A 
ATOM     27  H6  UNL     1     155.763 158.212 171.877  0.00  0.00    +0.000 HD
ENDBRANCH  17  18
ENDBRANCH   1  17
TORSDOF 5
ENDMDL
MODEL 7
REMARK VINA RESULT:      -6.3      1.398      6.636
REMARK  Name = ./3D_structures\o24_MMV452821_3D.pdb
REMARK  5 active torsions:
REMARK  status: ('A' for Active; 'I' for Inactive)
REMARK    1  A    between atoms: O1_1  and  C1_2
REMARK    2  A    between atoms: C1_2  and  C2_4
REMARK    3  A    between atoms: C2_4  and  C3_5
REMARK    4  A    between atoms: C2_4  and  N2_15
REMARK    5  A    between atoms: C3_5  and  C4_6
REMARK                            x       y       z     vdW  Elec       q    Type
REMARK                         _______ _______ _______ _____ _____    ______ ____
ROOT
ATOM      1  C2  UNL     1     147.640 164.492 168.757  0.00  0.00    +0.000 C 
ENDROOT
BRANCH   1   2
ATOM      2  N2  UNL     1     148.721 164.506 167.803  0.00  0.00    +0.000 N 
ATOM      3  C12 UNL     1     149.694 163.461 167.578  0.00  0.00    +0.000 C 
ATOM      4  O3  UNL     1     149.701 162.385 168.243  0.00  0.00    +0.000 OA
ATOM      5  C13 UNL     1     150.594 163.851 166.521  0.00  0.00    +0.000 A 
ATOM      6  C14 UNL     1     151.664 163.223 165.930  0.00  0.00    +0.000 A 
ATOM      7  C15 UNL     1     152.379 163.793 164.914  0.00  0.00    +0.000 A 
ATOM      8  C16 UNL     1     152.021 165.052 164.454  0.00  0.00    +0.000 A 
ATOM      9  C17 UNL     1     150.953 165.702 165.028  0.00  0.00    +0.000 A 
ATOM     10  C18 UNL     1     150.235 165.108 166.061  0.00  0.00    +0.000 A 
ATOM     11  C19 UNL     1     149.069 165.517 166.859  0.00  0.00    +0.000 C 
ATOM     12  O4  UNL     1     148.462 166.616 166.722  0.00  0.00    +0.000 OA
ENDBRANCH   1   2
BRANCH   1  13
ATOM     13  C1  UNL     1     148.037 165.097 170.010  0.00  0.00    +0.000 C 
ATOM     14  O2  UNL     1     149.051 164.768 170.705  0.00  0.00    +0.000 OA
BRANCH  13  15
ATOM     15  O1  UNL     1     147.274 166.135 170.544  0.00  0.00    +0.000 OA
ATOM     16  H1  UNL     1     147.102 167.009 170.052  0.00  0.00    +0.000 HD
ENDBRANCH  13  15
ENDBRANCH   1  13
BRANCH   1  17
ATOM     17  C3  UNL     1     146.418 165.086 168.098  0.00  0.00    +0.000 C 
BRANCH  17  18
ATOM     18  C4  UNL     1     145.326 164.124 167.933  0.00  0.00    +0.000 A 
ATOM     19  C5  UNL     1     145.123 162.958 168.633  0.00  0.00    +0.000 A 
ATOM     20  N1  UNL     1     144.010 162.342 168.164  0.00  0.00    +0.000 N 
ATOM     21  C6  UNL     1     143.505 163.105 167.174  0.00  0.00    +0.000 A 
ATOM     22  C7  UNL     1     142.404 162.975 166.347  0.00  0.00    +0.000 A 
ATOM     23  C8  UNL     1     142.087 163.922 165.374  0.00  0.00    +0.000 A 
ATOM     24  C9  UNL     1     142.889 165.031 165.220  0.00  0.00    +0.000 A 
ATOM     25  C10 UNL     1     143.994 165.173 166.040  0.00  0.00    +0.000 A 
ATOM     26  C11 UNL     1     144.308 164.216 167.017  0.00  0.00    +0.000 A 
ATOM     27  H6  UNL     1     143.614 161.420 168.517  0.00  0.00    +0.000 HD
ENDBRANCH  17  18
ENDBRANCH   1  17
TORSDOF 5
ENDMDL
MODEL 8
REMARK VINA RESULT:      -6.2      3.273      7.433
REMARK  Name = ./3D_structures\o24_MMV452821_3D.pdb
REMARK  5 active torsions:
REMARK  status: ('A' for Active; 'I' for Inactive)
REMARK    1  A    between atoms: O1_1  and  C1_2
REMARK    2  A    between atoms: C1_2  and  C2_4
REMARK    3  A    between atoms: C2_4  and  C3_5
REMARK    4  A    between atoms: C2_4  and  N2_15
REMARK    5  A    between atoms: C3_5  and  C4_6
REMARK                            x       y       z     vdW  Elec       q    Type
REMARK                         _______ _______ _______ _____ _____    ______ ____
ROOT
ATOM      1  C2  UNL     1     150.025 161.850 167.028  0.00  0.00    +0.000 C 
ENDROOT
BRANCH   1   2
ATOM      2  N2  UNL     1     151.284 161.148 166.997  0.00  0.00    +0.000 N 
ATOM      3  C12 UNL     1     152.140 160.951 165.849  0.00  0.00    +0.000 C 
ATOM      4  O3  UNL     1     151.842 161.383 164.698  0.00  0.00    +0.000 OA
ATOM      5  C13 UNL     1     153.319 160.218 166.238  0.00  0.00    +0.000 A 
ATOM      6  C14 UNL     1     154.424 159.793 165.541  0.00  0.00    +0.000 A 
ATOM      7  C15 UNL     1     155.447 159.107 166.134  0.00  0.00    +0.000 A 
ATOM      8  C16 UNL     1     155.378 158.823 167.491  0.00  0.00    +0.000 A 
ATOM      9  C17 UNL     1     154.283 159.237 168.212  0.00  0.00    +0.000 A 
ATOM     10  C18 UNL     1     153.250 159.935 167.593  0.00  0.00    +0.000 A 
ATOM     11  C19 UNL     1     151.983 160.514 168.066  0.00  0.00    +0.000 C 
ATOM     12  O4  UNL     1     151.575 160.454 169.261  0.00  0.00    +0.000 OA
ENDBRANCH   1   2
BRANCH   1  13
ATOM     13  C1  UNL     1     148.977 161.024 167.587  0.00  0.00    +0.000 C 
ATOM     14  O2  UNL     1     148.246 160.212 166.936  0.00  0.00    +0.000 OA
BRANCH  13  15
ATOM     15  O1  UNL     1     148.706 161.089 168.954  0.00  0.00    +0.000 OA
ATOM     16  H1  UNL     1     148.020 161.724 169.355  0.00  0.00    +0.000 HD
ENDBRANCH  13  15
ENDBRANCH   1  13
BRANCH   1  17
ATOM     17  C3  UNL     1     150.243 163.183 167.703  0.00  0.00    +0.000 C 
BRANCH  17  18
ATOM     18  C4  UNL     1     149.676 164.308 166.956  0.00  0.00    +0.000 A 
ATOM     19  C5  UNL     1     150.330 165.159 166.097  0.00  0.00    +0.000 A 
ATOM     20  N1  UNL     1     149.454 166.079 165.625  0.00  0.00    +0.000 N 
ATOM     21  C6  UNL     1     148.250 165.821 166.176  0.00  0.00    +0.000 A 
ATOM     22  C7  UNL     1     147.010 166.423 166.065  0.00  0.00    +0.000 A 
ATOM     23  C8  UNL     1     145.892 165.959 166.757  0.00  0.00    +0.000 A 
ATOM     24  C9  UNL     1     146.012 164.862 167.582  0.00  0.00    +0.000 A 
ATOM     25  C10 UNL     1     147.247 164.251 167.702  0.00  0.00    +0.000 A 
ATOM     26  C11 UNL     1     148.369 164.724 167.004  0.00  0.00    +0.000 A 
ATOM     27  H6  UNL     1     149.683 166.865 164.945  0.00  0.00    +0.000 HD
ENDBRANCH  17  18
ENDBRANCH   1  17
TORSDOF 5
ENDMDL
MODEL 9
REMARK VINA RESULT:      -6.2      7.491     10.927
REMARK  Name = ./3D_structures\o24_MMV452821_3D.pdb
REMARK  5 active torsions:
REMARK  status: ('A' for Active; 'I' for Inactive)
REMARK    1  A    between atoms: O1_1  and  C1_2
REMARK    2  A    between atoms: C1_2  and  C2_4
REMARK    3  A    between atoms: C2_4  and  C3_5
REMARK    4  A    between atoms: C2_4  and  N2_15
REMARK    5  A    between atoms: C3_5  and  C4_6
REMARK                            x       y       z     vdW  Elec       q    Type
REMARK                         _______ _______ _______ _____ _____    ______ ____
ROOT
ATOM      1  C2  UNL     1     156.522 158.187 166.334  0.00  0.00    +0.000 C 
ENDROOT
BRANCH   1   2
ATOM      2  N2  UNL     1     156.534 158.560 167.726  0.00  0.00    +0.000 N 
ATOM      3  C12 UNL     1     157.333 159.597 168.340  0.00  0.00    +0.000 C 
ATOM      4  O3  UNL     1     158.153 160.301 167.684  0.00  0.00    +0.000 OA
ATOM      5  C13 UNL     1     157.035 159.673 169.749  0.00  0.00    +0.000 A 
ATOM      6  C14 UNL     1     157.503 160.480 170.758  0.00  0.00    +0.000 A 
ATOM      7  C15 UNL     1     157.060 160.377 172.047  0.00  0.00    +0.000 A 
ATOM      8  C16 UNL     1     156.101 159.423 172.361  0.00  0.00    +0.000 A 
ATOM      9  C17 UNL     1     155.615 158.602 171.370  0.00  0.00    +0.000 A 
ATOM     10  C18 UNL     1     156.078 158.722 170.062  0.00  0.00    +0.000 A 
ATOM     11  C19 UNL     1     155.765 158.028 168.803  0.00  0.00    +0.000 C 
ATOM     12  O4  UNL     1     154.927 157.089 168.696  0.00  0.00    +0.000 OA
ENDBRANCH   1   2
BRANCH   1  13
ATOM     13  C1  UNL     1     156.870 156.793 166.161  0.00  0.00    +0.000 C 
ATOM     14  O2  UNL     1     157.906 156.223 166.628  0.00  0.00    +0.000 OA
BRANCH  13  15
ATOM     15  O1  UNL     1     156.025 155.961 165.425  0.00  0.00    +0.000 OA
ATOM     16  H1  UNL     1     155.040 155.838 165.642  0.00  0.00    +0.000 HD
ENDBRANCH  13  15
ENDBRANCH   1  13
BRANCH   1  17
ATOM     17  C3  UNL     1     155.202 158.615 165.740  0.00  0.00    +0.000 C 
BRANCH  17  18
ATOM     18  C4  UNL     1     155.204 160.002 165.266  0.00  0.00    +0.000 A 
ATOM     19  C5  UNL     1     156.282 160.739 164.838  0.00  0.00    +0.000 A 
ATOM     20  N1  UNL     1     155.867 161.986 164.503  0.00  0.00    +0.000 N 
ATOM     21  C6  UNL     1     154.537 162.046 164.714  0.00  0.00    +0.000 A 
ATOM     22  C7  UNL     1     153.598 163.049 164.554  0.00  0.00    +0.000 A 
ATOM     23  C8  UNL     1     152.249 162.861 164.852  0.00  0.00    +0.000 A 
ATOM     24  C9  UNL     1     151.822 161.639 165.323  0.00  0.00    +0.000 A 
ATOM     25  C10 UNL     1     152.751 160.627 165.488  0.00  0.00    +0.000 A 
ATOM     26  C11 UNL     1     154.108 160.823 165.188  0.00  0.00    +0.000 A 
ATOM     27  H6  UNL     1     156.487 162.771 164.142  0.00  0.00    +0.000 HD
ENDBRANCH  17  18
ENDBRANCH   1  17
TORSDOF 5
ENDMDL
