MODEL 1
REMARK VINA RESULT:      -5.6      0.000      0.000
REMARK  Name = ./3D_structures\o26_MMV1578562_3D.pdb
REMARK  7 active torsions:
REMARK  status: ('A' for Active; 'I' for Inactive)
REMARK    1  A    between atoms: S1_2  and  N1_4
REMARK    2  A    between atoms: S1_2  and  C7_11
REMARK    3  A    between atoms: N1_4  and  C1_5
REMARK    4  A    between atoms: C10_14  and  N2_15
REMARK    5  A    between atoms: N2_15  and  C11_16
REMARK    6  A    between atoms: C11_16  and  N3_18
REMARK    7  A    between atoms: N3_18  and  C12_19
REMARK                            x       y       z     vdW  Elec       q    Type
REMARK                         _______ _______ _______ _____ _____    ______ ____
ROOT
ATOM      1  C7  UNL     1     154.442 160.356 171.323  0.00  0.00    +0.000 A 
ATOM      2  C8  UNL     1     154.870 161.014 170.207  0.00  0.00    +0.000 A 
ATOM      3  C9  UNL     1     153.970 161.274 169.195  0.00  0.00    +0.000 A 
ATOM      4  C10 UNL     1     152.651 160.883 169.287  0.00  0.00    +0.000 A 
ATOM      5  C18 UNL     1     152.258 160.210 170.456  0.00  0.00    +0.000 A 
ATOM      6  C19 UNL     1     153.127 159.934 171.483  0.00  0.00    +0.000 A 
ENDROOT
BRANCH   1   8
ATOM      7  O1  UNL     1     156.630 161.108 172.678  0.00  0.00    +0.000 OA
ATOM      8  S1  UNL     1     155.591 160.032 172.600  0.00  0.00    +0.000 S 
ATOM      9  O2  UNL     1     154.822 159.966 173.913  0.00  0.00    +0.000 OA
BRANCH   8  10
ATOM     10  N1  UNL     1     156.335 158.499 172.358  0.00  0.00    +0.000 N 
ATOM     11  H1  UNL     1     156.505 157.862 173.138  0.00  0.00    +0.000 HD
BRANCH  10  12
ATOM     12  C1  UNL     1     156.713 158.129 171.046  0.00  0.00    +0.000 A 
ATOM     13  C2  UNL     1     157.928 158.575 170.568  0.00  0.00    +0.000 A 
ATOM     14  C3  UNL     1     158.353 158.251 169.304  0.00  0.00    +0.000 A 
ATOM     15  C4  UNL     1     157.530 157.463 168.516  0.00  0.00    +0.000 A 
ATOM     16  C5  UNL     1     156.316 156.999 168.950  0.00  0.00    +0.000 A 
ATOM     17  C6  UNL     1     155.925 157.345 170.225  0.00  0.00    +0.000 A 
ENDBRANCH  10  12
ENDBRANCH   8  10
ENDBRANCH   1   8
BRANCH   4  18
ATOM     18  N2  UNL     1     151.696 161.100 168.268  0.00  0.00    +0.000 N 
ATOM     19  H9  UNL     1     150.711 160.768 168.440  0.00  0.00    +0.000 HD
BRANCH  18  20
ATOM     20  C11 UNL     1     151.984 161.731 167.047  0.00  0.00    +0.000 C 
ATOM     21  S2  UNL     1     151.964 163.387 166.948  0.00  0.00    +0.000 S 
BRANCH  20  22
ATOM     22  N3  UNL     1     152.328 160.981 165.911  0.00  0.00    +0.000 N 
ATOM     23  H10 UNL     1     151.590 160.808 165.150  0.00  0.00    +0.000 HD
BRANCH  22  24
ATOM     24  C12 UNL     1     153.621 160.467 165.712  0.00  0.00    +0.000 A 
ATOM     25  C13 UNL     1     153.821 159.144 166.134  0.00  0.00    +0.000 A 
ATOM     26  C14 UNL     1     155.036 158.536 165.952  0.00  0.00    +0.000 A 
ATOM     27  C15 UNL     1     156.036 159.257 165.351  0.00  0.00    +0.000 A 
ATOM     28  C16 UNL     1     155.844 160.557 164.935  0.00  0.00    +0.000 A 
ATOM     29  C17 UNL     1     154.604 161.192 165.114  0.00  0.00    +0.000 A 
ENDBRANCH  22  24
ENDBRANCH  20  22
ENDBRANCH  18  20
ENDBRANCH   4  18
TORSDOF 7
ENDMDL
MODEL 2
REMARK VINA RESULT:      -5.5      3.477      5.588
REMARK  Name = ./3D_structures\o26_MMV1578562_3D.pdb
REMARK  7 active torsions:
REMARK  status: ('A' for Active; 'I' for Inactive)
REMARK    1  A    between atoms: S1_2  and  N1_4
REMARK    2  A    between atoms: S1_2  and  C7_11
REMARK    3  A    between atoms: N1_4  and  C1_5
REMARK    4  A    between atoms: C10_14  and  N2_15
REMARK    5  A    between atoms: N2_15  and  C11_16
REMARK    6  A    between atoms: C11_16  and  N3_18
REMARK    7  A    between atoms: N3_18  and  C12_19
REMARK                            x       y       z     vdW  Elec       q    Type
REMARK                         _______ _______ _______ _____ _____    ______ ____
ROOT
ATOM      1  C7  UNL     1     157.802 159.514 170.338  0.00  0.00    +0.000 A 
ATOM      2  C8  UNL     1     158.191 160.763 169.949  0.00  0.00    +0.000 A 
ATOM      3  C9  UNL     1     159.144 160.892 168.962  0.00  0.00    +0.000 A 
ATOM      4  C10 UNL     1     159.714 159.787 168.363  0.00  0.00    +0.000 A 
ATOM      5  C18 UNL     1     159.280 158.524 168.796  0.00  0.00    +0.000 A 
ATOM      6  C19 UNL     1     158.332 158.358 169.776  0.00  0.00    +0.000 A 
ENDROOT
BRANCH   1   8
ATOM      7  O1  UNL     1     156.608 157.993 172.196  0.00  0.00    +0.000 OA
ATOM      8  S1  UNL     1     156.591 159.363 171.589  0.00  0.00    +0.000 S 
ATOM      9  O2  UNL     1     156.897 160.401 172.661  0.00  0.00    +0.000 OA
BRANCH   8  10
ATOM     10  N1  UNL     1     155.030 159.716 170.955  0.00  0.00    +0.000 N 
ATOM     11  H1  UNL     1     154.323 160.191 171.519  0.00  0.00    +0.000 HD
BRANCH  10  12
ATOM     12  C1  UNL     1     154.737 159.334 169.625  0.00  0.00    +0.000 A 
ATOM     13  C2  UNL     1     154.581 157.991 169.353  0.00  0.00    +0.000 A 
ATOM     14  C3  UNL     1     154.295 157.556 168.083  0.00  0.00    +0.000 A 
ATOM     15  C4  UNL     1     154.167 158.500 167.078  0.00  0.00    +0.000 A 
ATOM     16  C5  UNL     1     154.314 159.843 167.304  0.00  0.00    +0.000 A 
ATOM     17  C6  UNL     1     154.600 160.241 168.591  0.00  0.00    +0.000 A 
ENDBRANCH  10  12
ENDBRANCH   8  10
ENDBRANCH   1   8
BRANCH   4  18
ATOM     18  N2  UNL     1     160.714 159.864 167.367  0.00  0.00    +0.000 N 
ATOM     19  H9  UNL     1     161.144 160.807 167.176  0.00  0.00    +0.000 HD
BRANCH  18  20
ATOM     20  C11 UNL     1     161.164 158.763 166.622  0.00  0.00    +0.000 C 
ATOM     21  S2  UNL     1     162.397 157.818 167.206  0.00  0.00    +0.000 S 
BRANCH  20  22
ATOM     22  N3  UNL     1     160.558 158.420 165.402  0.00  0.00    +0.000 N 
ATOM     23  H10 UNL     1     161.103 158.559 164.487  0.00  0.00    +0.000 HD
BRANCH  22  24
ATOM     24  C12 UNL     1     159.268 157.869 165.331  0.00  0.00    +0.000 A 
ATOM     25  C13 UNL     1     159.182 156.488 165.565  0.00  0.00    +0.000 A 
ATOM     26  C14 UNL     1     157.964 155.859 165.553  0.00  0.00    +0.000 A 
ATOM     27  C15 UNL     1     156.848 156.616 165.308  0.00  0.00    +0.000 A 
ATOM     28  C16 UNL     1     156.927 157.973 165.079  0.00  0.00    +0.000 A 
ATOM     29  C17 UNL     1     158.167 158.630 165.088  0.00  0.00    +0.000 A 
ENDBRANCH  22  24
ENDBRANCH  20  22
ENDBRANCH  18  20
ENDBRANCH   4  18
TORSDOF 7
ENDMDL
MODEL 3
REMARK VINA RESULT:      -5.5      3.233      4.848
REMARK  Name = ./3D_structures\o26_MMV1578562_3D.pdb
REMARK  7 active torsions:
REMARK  status: ('A' for Active; 'I' for Inactive)
REMARK    1  A    between atoms: S1_2  and  N1_4
REMARK    2  A    between atoms: S1_2  and  C7_11
REMARK    3  A    between atoms: N1_4  and  C1_5
REMARK    4  A    between atoms: C10_14  and  N2_15
REMARK    5  A    between atoms: N2_15  and  C11_16
REMARK    6  A    between atoms: C11_16  and  N3_18
REMARK    7  A    between atoms: N3_18  and  C12_19
REMARK                            x       y       z     vdW  Elec       q    Type
REMARK                         _______ _______ _______ _____ _____    ______ ____
ROOT
ATOM      1  C7  UNL     1     155.897 158.633 165.667  0.00  0.00    +0.000 A 
ATOM      2  C8  UNL     1     156.335 159.865 165.276  0.00  0.00    +0.000 A 
ATOM      3  C9  UNL     1     155.457 160.928 165.298  0.00  0.00    +0.000 A 
ATOM      4  C10 UNL     1     154.148 160.772 165.704  0.00  0.00    +0.000 A 
ATOM      5  C18 UNL     1     153.745 159.486 166.098  0.00  0.00    +0.000 A 
ATOM      6  C19 UNL     1     154.592 158.405 166.090  0.00  0.00    +0.000 A 
ENDROOT
BRANCH   1   8
ATOM      7  O1  UNL     1     156.296 155.982 165.681  0.00  0.00    +0.000 OA
ATOM      8  S1  UNL     1     157.019 157.293 165.636  0.00  0.00    +0.000 S 
ATOM      9  O2  UNL     1     157.823 157.390 164.346  0.00  0.00    +0.000 OA
BRANCH   8  10
ATOM     10  N1  UNL     1     158.126 157.412 166.948  0.00  0.00    +0.000 N 
ATOM     11  H1  UNL     1     159.135 157.359 166.798  0.00  0.00    +0.000 HD
BRANCH  10  12
ATOM     12  C1  UNL     1     157.612 157.585 168.254  0.00  0.00    +0.000 A 
ATOM     13  C2  UNL     1     158.277 158.441 169.107  0.00  0.00    +0.000 A 
ATOM     14  C3  UNL     1     157.829 158.653 170.388  0.00  0.00    +0.000 A 
ATOM     15  C4  UNL     1     156.689 157.985 170.804  0.00  0.00    +0.000 A 
ATOM     16  C5  UNL     1     155.998 157.127 169.990  0.00  0.00    +0.000 A 
ATOM     17  C6  UNL     1     156.479 156.940 168.713  0.00  0.00    +0.000 A 
ENDBRANCH  10  12
ENDBRANCH   8  10
ENDBRANCH   1   8
BRANCH   4  18
ATOM     18  N2  UNL     1     153.202 161.822 165.719  0.00  0.00    +0.000 N 
ATOM     19  H9  UNL     1     152.631 161.979 164.848  0.00  0.00    +0.000 HD
BRANCH  18  20
ATOM     20  C11 UNL     1     152.982 162.662 166.822  0.00  0.00    +0.000 C 
ATOM     21  S2  UNL     1     153.740 164.136 166.902  0.00  0.00    +0.000 S 
BRANCH  20  22
ATOM     22  N3  UNL     1     152.095 162.292 167.846  0.00  0.00    +0.000 N 
ATOM     23  H10 UNL     1     151.162 162.813 167.948  0.00  0.00    +0.000 HD
BRANCH  22  24
ATOM     24  C12 UNL     1     152.368 161.237 168.734  0.00  0.00    +0.000 A 
ATOM     25  C13 UNL     1     151.381 160.243 168.818  0.00  0.00    +0.000 A 
ATOM     26  C14 UNL     1     151.564 159.153 169.629  0.00  0.00    +0.000 A 
ATOM     27  C15 UNL     1     152.731 159.069 170.344  0.00  0.00    +0.000 A 
ATOM     28  C16 UNL     1     153.704 160.042 170.264  0.00  0.00    +0.000 A 
ATOM     29  C17 UNL     1     153.529 161.164 169.438  0.00  0.00    +0.000 A 
ENDBRANCH  22  24
ENDBRANCH  20  22
ENDBRANCH  18  20
ENDBRANCH   4  18
TORSDOF 7
ENDMDL
MODEL 4
REMARK VINA RESULT:      -5.4      2.645      4.951
REMARK  Name = ./3D_structures\o26_MMV1578562_3D.pdb
REMARK  7 active torsions:
REMARK  status: ('A' for Active; 'I' for Inactive)
REMARK    1  A    between atoms: S1_2  and  N1_4
REMARK    2  A    between atoms: S1_2  and  C7_11
REMARK    3  A    between atoms: N1_4  and  C1_5
REMARK    4  A    between atoms: C10_14  and  N2_15
REMARK    5  A    between atoms: N2_15  and  C11_16
REMARK    6  A    between atoms: C11_16  and  N3_18
REMARK    7  A    between atoms: N3_18  and  C12_19
REMARK                            x       y       z     vdW  Elec       q    Type
REMARK                         _______ _______ _______ _____ _____    ______ ____
ROOT
ATOM      1  C7  UNL     1     156.238 160.122 171.300  0.00  0.00    +0.000 A 
ATOM      2  C8  UNL     1     156.666 160.810 170.201  0.00  0.00    +0.000 A 
ATOM      3  C9  UNL     1     157.669 160.274 169.424  0.00  0.00    +0.000 A 
ATOM      4  C10 UNL     1     158.250 159.062 169.732  0.00  0.00    +0.000 A 
ATOM      5  C18 UNL     1     157.776 158.391 170.872  0.00  0.00    +0.000 A 
ATOM      6  C19 UNL     1     156.777 158.894 171.669  0.00  0.00    +0.000 A 
ENDROOT
BRANCH   1   8
ATOM      7  O1  UNL     1     154.657 159.939 173.458  0.00  0.00    +0.000 OA
ATOM      8  S1  UNL     1     154.963 160.810 172.279  0.00  0.00    +0.000 S 
ATOM      9  O2  UNL     1     155.433 162.177 172.759  0.00  0.00    +0.000 OA
BRANCH   8  10
ATOM     10  N1  UNL     1     153.548 161.052 171.331  0.00  0.00    +0.000 N 
ATOM     11  H1  UNL     1     153.296 161.977 170.978  0.00  0.00    +0.000 HD
BRANCH  10  12
ATOM     12  C1  UNL     1     152.726 159.937 171.044  0.00  0.00    +0.000 A 
ATOM     13  C2  UNL     1     153.141 159.057 170.066  0.00  0.00    +0.000 A 
ATOM     14  C3  UNL     1     152.388 157.955 169.741  0.00  0.00    +0.000 A 
ATOM     15  C4  UNL     1     151.199 157.748 170.420  0.00  0.00    +0.000 A 
ATOM     16  C5  UNL     1     150.750 158.595 171.398  0.00  0.00    +0.000 A 
ATOM     17  C6  UNL     1     151.532 159.690 171.696  0.00  0.00    +0.000 A 
ENDBRANCH  10  12
ENDBRANCH   8  10
ENDBRANCH   1   8
BRANCH   4  18
ATOM     18  N2  UNL     1     159.300 158.482 168.984  0.00  0.00    +0.000 N 
ATOM     19  H9  UNL     1     160.091 158.033 169.516  0.00  0.00    +0.000 HD
BRANCH  18  20
ATOM     20  C11 UNL     1     159.349 158.473 167.581  0.00  0.00    +0.000 C 
ATOM     21  S2  UNL     1     160.473 159.401 166.788  0.00  0.00    +0.000 S 
BRANCH  20  22
ATOM     22  N3  UNL     1     158.486 157.656 166.834  0.00  0.00    +0.000 N 
ATOM     23  H10 UNL     1     158.834 156.701 166.485  0.00  0.00    +0.000 HD
BRANCH  22  24
ATOM     24  C12 UNL     1     157.161 158.026 166.546  0.00  0.00    +0.000 A 
ATOM     25  C13 UNL     1     156.167 157.318 167.239  0.00  0.00    +0.000 A 
ATOM     26  C14 UNL     1     154.844 157.625 167.057  0.00  0.00    +0.000 A 
ATOM     27  C15 UNL     1     154.529 158.636 166.185  0.00  0.00    +0.000 A 
ATOM     28  C16 UNL     1     155.502 159.334 165.502  0.00  0.00    +0.000 A 
ATOM     29  C17 UNL     1     156.861 159.030 165.679  0.00  0.00    +0.000 A 
ENDBRANCH  22  24
ENDBRANCH  20  22
ENDBRANCH  18  20
ENDBRANCH   4  18
TORSDOF 7
ENDMDL
MODEL 5
REMARK VINA RESULT:      -5.4      4.151      6.180
REMARK  Name = ./3D_structures\o26_MMV1578562_3D.pdb
REMARK  7 active torsions:
REMARK  status: ('A' for Active; 'I' for Inactive)
REMARK    1  A    between atoms: S1_2  and  N1_4
REMARK    2  A    between atoms: S1_2  and  C7_11
REMARK    3  A    between atoms: N1_4  and  C1_5
REMARK    4  A    between atoms: C10_14  and  N2_15
REMARK    5  A    between atoms: N2_15  and  C11_16
REMARK    6  A    between atoms: C11_16  and  N3_18
REMARK    7  A    between atoms: N3_18  and  C12_19
REMARK                            x       y       z     vdW  Elec       q    Type
REMARK                         _______ _______ _______ _____ _____    ______ ____
ROOT
ATOM      1  C7  UNL     1     154.467 158.406 167.884  0.00  0.00    +0.000 A 
ATOM      2  C8  UNL     1     154.027 157.491 168.796  0.00  0.00    +0.000 A 
ATOM      3  C9  UNL     1     152.863 157.742 169.491  0.00  0.00    +0.000 A 
ATOM      4  C10 UNL     1     152.137 158.896 169.285  0.00  0.00    +0.000 A 
ATOM      5  C18 UNL     1     152.629 159.807 168.337  0.00  0.00    +0.000 A 
ATOM      6  C19 UNL     1     153.784 159.590 167.626  0.00  0.00    +0.000 A 
ENDROOT
BRANCH   1   8
ATOM      7  O1  UNL     1     156.072 156.619 166.694  0.00  0.00    +0.000 OA
ATOM      8  S1  UNL     1     155.943 158.078 167.009  0.00  0.00    +0.000 S 
ATOM      9  O2  UNL     1     155.905 158.880 165.714  0.00  0.00    +0.000 OA
BRANCH   8  10
ATOM     10  N1  UNL     1     157.305 158.617 167.912  0.00  0.00    +0.000 N 
ATOM     11  H1  UNL     1     158.246 158.601 167.516  0.00  0.00    +0.000 HD
BRANCH  10  12
ATOM     12  C1  UNL     1     157.100 159.089 169.230  0.00  0.00    +0.000 A 
ATOM     13  C2  UNL     1     157.228 158.192 170.270  0.00  0.00    +0.000 A 
ATOM     14  C3  UNL     1     157.042 158.588 171.572  0.00  0.00    +0.000 A 
ATOM     15  C4  UNL     1     156.721 159.913 171.816  0.00  0.00    +0.000 A 
ATOM     16  C5  UNL     1     156.584 160.837 170.814  0.00  0.00    +0.000 A 
ATOM     17  C6  UNL     1     156.779 160.402 169.521  0.00  0.00    +0.000 A 
ENDBRANCH  10  12
ENDBRANCH   8  10
ENDBRANCH   1   8
BRANCH   4  18
ATOM     18  N2  UNL     1     150.953 159.213 169.990  0.00  0.00    +0.000 N 
ATOM     19  H9  UNL     1     150.185 159.703 169.462  0.00  0.00    +0.000 HD
BRANCH  18  20
ATOM     20  C11 UNL     1     150.746 158.915 171.346  0.00  0.00    +0.000 C 
ATOM     21  S2  UNL     1     151.665 159.663 172.507  0.00  0.00    +0.000 S 
BRANCH  20  22
ATOM     22  N3  UNL     1     149.740 158.018 171.742  0.00  0.00    +0.000 N 
ATOM     23  H10 UNL     1     148.718 158.347 171.758  0.00  0.00    +0.000 HD
BRANCH  22  24
ATOM     24  C12 UNL     1     150.015 156.686 172.093  0.00  0.00    +0.000 A 
ATOM     25  C13 UNL     1     149.899 156.380 173.458  0.00  0.00    +0.000 A 
ATOM     26  C14 UNL     1     150.111 155.100 173.901  0.00  0.00    +0.000 A 
ATOM     27  C15 UNL     1     150.437 154.142 172.976  0.00  0.00    +0.000 A 
ATOM     28  C16 UNL     1     150.552 154.437 171.634  0.00  0.00    +0.000 A 
ATOM     29  C17 UNL     1     150.337 155.744 171.167  0.00  0.00    +0.000 A 
ENDBRANCH  22  24
ENDBRANCH  20  22
ENDBRANCH  18  20
ENDBRANCH   4  18
TORSDOF 7
ENDMDL
MODEL 6
REMARK VINA RESULT:      -5.3      2.988      5.104
REMARK  Name = ./3D_structures\o26_MMV1578562_3D.pdb
REMARK  7 active torsions:
REMARK  status: ('A' for Active; 'I' for Inactive)
REMARK    1  A    between atoms: S1_2  and  N1_4
REMARK    2  A    between atoms: S1_2  and  C7_11
REMARK    3  A    between atoms: N1_4  and  C1_5
REMARK    4  A    between atoms: C10_14  and  N2_15
REMARK    5  A    between atoms: N2_15  and  C11_16
REMARK    6  A    between atoms: C11_16  and  N3_18
REMARK    7  A    between atoms: N3_18  and  C12_19
REMARK                            x       y       z     vdW  Elec       q    Type
REMARK                         _______ _______ _______ _____ _____    ______ ____
ROOT
ATOM      1  C7  UNL     1     156.050 159.349 166.514  0.00  0.00    +0.000 A 
ATOM      2  C8  UNL     1     154.944 158.738 165.998  0.00  0.00    +0.000 A 
ATOM      3  C9  UNL     1     153.703 159.292 166.228  0.00  0.00    +0.000 A 
ATOM      4  C10 UNL     1     153.555 160.446 166.968  0.00  0.00    +0.000 A 
ATOM      5  C18 UNL     1     154.723 161.038 167.479  0.00  0.00    +0.000 A 
ATOM      6  C19 UNL     1     155.975 160.515 167.269  0.00  0.00    +0.000 A 
ENDROOT
BRANCH   1   8
ATOM      7  O1  UNL     1     157.693 158.050 164.841  0.00  0.00    +0.000 OA
ATOM      8  S1  UNL     1     157.619 158.638 166.216  0.00  0.00    +0.000 S 
ATOM      9  O2  UNL     1     158.662 159.738 166.360  0.00  0.00    +0.000 OA
BRANCH   8  10
ATOM     10  N1  UNL     1     157.964 157.438 167.400  0.00  0.00    +0.000 N 
ATOM     11  H1  UNL     1     158.521 156.612 167.173  0.00  0.00    +0.000 HD
BRANCH  10  12
ATOM     12  C1  UNL     1     157.459 157.612 168.710  0.00  0.00    +0.000 A 
ATOM     13  C2  UNL     1     158.197 158.367 169.597  0.00  0.00    +0.000 A 
ATOM     14  C3  UNL     1     157.761 158.575 170.882  0.00  0.00    +0.000 A 
ATOM     15  C4  UNL     1     156.558 158.006 171.268  0.00  0.00    +0.000 A 
ATOM     16  C5  UNL     1     155.793 157.249 170.420  0.00  0.00    +0.000 A 
ATOM     17  C6  UNL     1     156.264 157.064 169.138  0.00  0.00    +0.000 A 
ENDBRANCH  10  12
ENDBRANCH   8  10
ENDBRANCH   1   8
BRANCH   4  18
ATOM     18  N2  UNL     1     152.305 161.039 167.256  0.00  0.00    +0.000 N 
ATOM     19  H9  UNL     1     151.929 161.746 166.572  0.00  0.00    +0.000 HD
BRANCH  18  20
ATOM     20  C11 UNL     1     151.540 160.740 168.394  0.00  0.00    +0.000 C 
ATOM     21  S2  UNL     1     150.181 161.630 168.733  0.00  0.00    +0.000 S 
BRANCH  20  22
ATOM     22  N3  UNL     1     151.884 159.669 169.235  0.00  0.00    +0.000 N 
ATOM     23  H10 UNL     1     151.909 158.673 168.835  0.00  0.00    +0.000 HD
BRANCH  22  24
ATOM     24  C12 UNL     1     152.231 159.853 170.584  0.00  0.00    +0.000 A 
ATOM     25  C13 UNL     1     153.545 160.283 170.821  0.00  0.00    +0.000 A 
ATOM     26  C14 UNL     1     153.973 160.526 172.100  0.00  0.00    +0.000 A 
ATOM     27  C15 UNL     1     153.084 160.336 173.127  0.00  0.00    +0.000 A 
ATOM     28  C16 UNL     1     151.792 159.914 172.899  0.00  0.00    +0.000 A 
ATOM     29  C17 UNL     1     151.340 159.662 171.594  0.00  0.00    +0.000 A 
ENDBRANCH  22  24
ENDBRANCH  20  22
ENDBRANCH  18  20
ENDBRANCH   4  18
TORSDOF 7
ENDMDL
MODEL 7
REMARK VINA RESULT:      -5.3      3.357      4.305
REMARK  Name = ./3D_structures\o26_MMV1578562_3D.pdb
REMARK  7 active torsions:
REMARK  status: ('A' for Active; 'I' for Inactive)
REMARK    1  A    between atoms: S1_2  and  N1_4
REMARK    2  A    between atoms: S1_2  and  C7_11
REMARK    3  A    between atoms: N1_4  and  C1_5
REMARK    4  A    between atoms: C10_14  and  N2_15
REMARK    5  A    between atoms: N2_15  and  C11_16
REMARK    6  A    between atoms: C11_16  and  N3_18
REMARK    7  A    between atoms: N3_18  and  C12_19
REMARK                            x       y       z     vdW  Elec       q    Type
REMARK                         _______ _______ _______ _____ _____    ______ ____
ROOT
ATOM      1  C7  UNL     1     155.259 158.872 167.039  0.00  0.00    +0.000 A 
ATOM      2  C8  UNL     1     155.745 160.147 167.046  0.00  0.00    +0.000 A 
ATOM      3  C9  UNL     1     154.948 161.166 167.522  0.00  0.00    +0.000 A 
ATOM      4  C10 UNL     1     153.672 160.925 167.988  0.00  0.00    +0.000 A 
ATOM      5  C18 UNL     1     153.217 159.596 167.962  0.00  0.00    +0.000 A 
ATOM      6  C19 UNL     1     153.984 158.556 167.496  0.00  0.00    +0.000 A 
ENDROOT
BRANCH   1   8
ATOM      7  O1  UNL     1     155.500 156.638 165.577  0.00  0.00    +0.000 OA
ATOM      8  S1  UNL     1     156.278 157.587 166.435  0.00  0.00    +0.000 S 
ATOM      9  O2  UNL     1     157.392 158.224 165.613  0.00  0.00    +0.000 OA
BRANCH   8  10
ATOM     10  N1  UNL     1     157.016 156.746 167.742  0.00  0.00    +0.000 N 
ATOM     11  H1  UNL     1     157.375 155.796 167.628  0.00  0.00    +0.000 HD
BRANCH  10  12
ATOM     12  C1  UNL     1     157.118 157.396 168.994  0.00  0.00    +0.000 A 
ATOM     13  C2  UNL     1     158.195 158.231 169.208  0.00  0.00    +0.000 A 
ATOM     14  C3  UNL     1     158.351 158.891 170.401  0.00  0.00    +0.000 A 
ATOM     15  C4  UNL     1     157.400 158.698 171.389  0.00  0.00    +0.000 A 
ATOM     16  C5  UNL     1     156.316 157.878 171.220  0.00  0.00    +0.000 A 
ATOM     17  C6  UNL     1     156.194 157.233 170.009  0.00  0.00    +0.000 A 
ENDBRANCH  10  12
ENDBRANCH   8  10
ENDBRANCH   1   8
BRANCH   4  18
ATOM     18  N2  UNL     1     152.806 161.936 168.461  0.00  0.00    +0.000 N 
ATOM     19  H9  UNL     1     153.220 162.696 169.061  0.00  0.00    +0.000 HD
BRANCH  18  20
ATOM     20  C11 UNL     1     151.432 161.986 168.177  0.00  0.00    +0.000 C 
ATOM     21  S2  UNL     1     150.332 162.014 169.419  0.00  0.00    +0.000 S 
BRANCH  20  22
ATOM     22  N3  UNL     1     150.970 162.053 166.852  0.00  0.00    +0.000 N 
ATOM     23  H10 UNL     1     150.159 161.418 166.545  0.00  0.00    +0.000 HD
BRANCH  22  24
ATOM     24  C12 UNL     1     151.509 162.945 165.911  0.00  0.00    +0.000 A 
ATOM     25  C13 UNL     1     152.230 162.358 164.860  0.00  0.00    +0.000 A 
ATOM     26  C14 UNL     1     152.767 163.138 163.869  0.00  0.00    +0.000 A 
ATOM     27  C15 UNL     1     152.578 164.494 163.940  0.00  0.00    +0.000 A 
ATOM     28  C16 UNL     1     151.870 165.075 164.970  0.00  0.00    +0.000 A 
ATOM     29  C17 UNL     1     151.314 164.289 165.991  0.00  0.00    +0.000 A 
ENDBRANCH  22  24
ENDBRANCH  20  22
ENDBRANCH  18  20
ENDBRANCH   4  18
TORSDOF 7
ENDMDL
MODEL 8
REMARK VINA RESULT:      -5.3     13.685     16.545
REMARK  Name = ./3D_structures\o26_MMV1578562_3D.pdb
REMARK  7 active torsions:
REMARK  status: ('A' for Active; 'I' for Inactive)
REMARK    1  A    between atoms: S1_2  and  N1_4
REMARK    2  A    between atoms: S1_2  and  C7_11
REMARK    3  A    between atoms: N1_4  and  C1_5
REMARK    4  A    between atoms: C10_14  and  N2_15
REMARK    5  A    between atoms: N2_15  and  C11_16
REMARK    6  A    between atoms: C11_16  and  N3_18
REMARK    7  A    between atoms: N3_18  and  C12_19
REMARK                            x       y       z     vdW  Elec       q    Type
REMARK                         _______ _______ _______ _____ _____    ______ ____
ROOT
ATOM      1  C7  UNL     1     162.627 147.775 168.640  0.00  0.00    +0.000 A 
ATOM      2  C8  UNL     1     163.473 146.704 168.638  0.00  0.00    +0.000 A 
ATOM      3  C9  UNL     1     163.471 145.846 169.717  0.00  0.00    +0.000 A 
ATOM      4  C10 UNL     1     162.636 146.049 170.796  0.00  0.00    +0.000 A 
ATOM      5  C18 UNL     1     161.784 147.164 170.752  0.00  0.00    +0.000 A 
ATOM      6  C19 UNL     1     161.758 148.039 169.694  0.00  0.00    +0.000 A 
ENDROOT
BRANCH   1   8
ATOM      7  O1  UNL     1     163.398 148.266 166.119  0.00  0.00    +0.000 OA
ATOM      8  S1  UNL     1     162.637 148.856 167.266  0.00  0.00    +0.000 S 
ATOM      9  O2  UNL     1     161.191 149.096 166.852  0.00  0.00    +0.000 OA
BRANCH   8  10
ATOM     10  N1  UNL     1     163.308 150.378 167.710  0.00  0.00    +0.000 N 
ATOM     11  H1  UNL     1     162.783 151.045 168.277  0.00  0.00    +0.000 HD
BRANCH  10  12
ATOM     12  C1  UNL     1     164.615 150.696 167.270  0.00  0.00    +0.000 A 
ATOM     13  C2  UNL     1     164.751 151.429 166.111  0.00  0.00    +0.000 A 
ATOM     14  C3  UNL     1     165.992 151.771 165.632  0.00  0.00    +0.000 A 
ATOM     15  C4  UNL     1     167.107 151.359 166.343  0.00  0.00    +0.000 A 
ATOM     16  C5  UNL     1     167.017 150.630 167.499  0.00  0.00    +0.000 A 
ATOM     17  C6  UNL     1     165.755 150.306 167.948  0.00  0.00    +0.000 A 
ENDBRANCH  10  12
ENDBRANCH   8  10
ENDBRANCH   1   8
BRANCH   4  18
ATOM     18  N2  UNL     1     162.615 145.216 171.938  0.00  0.00    +0.000 N 
ATOM     19  H9  UNL     1     162.700 145.675 172.882  0.00  0.00    +0.000 HD
BRANCH  18  20
ATOM     20  C11 UNL     1     162.490 143.818 171.885  0.00  0.00    +0.000 C 
ATOM     21  S2  UNL     1     163.670 142.858 172.547  0.00  0.00    +0.000 S 
BRANCH  20  22
ATOM     22  N3  UNL     1     161.357 143.216 171.314  0.00  0.00    +0.000 N 
ATOM     23  H10 UNL     1     160.564 142.874 171.953  0.00  0.00    +0.000 HD
BRANCH  22  24
ATOM     24  C12 UNL     1     161.203 143.068 169.925  0.00  0.00    +0.000 A 
ATOM     25  C13 UNL     1     160.254 143.911 169.326  0.00  0.00    +0.000 A 
ATOM     26  C14 UNL     1     160.052 143.871 167.971  0.00  0.00    +0.000 A 
ATOM     27  C15 UNL     1     160.799 142.990 167.231  0.00  0.00    +0.000 A 
ATOM     28  C16 UNL     1     161.732 142.161 167.816  0.00  0.00    +0.000 A 
ATOM     29  C17 UNL     1     161.950 142.191 169.202  0.00  0.00    +0.000 A 
ENDBRANCH  22  24
ENDBRANCH  20  22
ENDBRANCH  18  20
ENDBRANCH   4  18
TORSDOF 7
ENDMDL
MODEL 9
REMARK VINA RESULT:      -5.3      4.087      6.321
REMARK  Name = ./3D_structures\o26_MMV1578562_3D.pdb
REMARK  7 active torsions:
REMARK  status: ('A' for Active; 'I' for Inactive)
REMARK    1  A    between atoms: S1_2  and  N1_4
REMARK    2  A    between atoms: S1_2  and  C7_11
REMARK    3  A    between atoms: N1_4  and  C1_5
REMARK    4  A    between atoms: C10_14  and  N2_15
REMARK    5  A    between atoms: N2_15  and  C11_16
REMARK    6  A    between atoms: C11_16  and  N3_18
REMARK    7  A    between atoms: N3_18  and  C12_19
REMARK                            x       y       z     vdW  Elec       q    Type
REMARK                         _______ _______ _______ _____ _____    ______ ____
ROOT
ATOM      1  C7  UNL     1     157.316 159.058 170.116  0.00  0.00    +0.000 A 
ATOM      2  C8  UNL     1     158.373 158.341 169.633  0.00  0.00    +0.000 A 
ATOM      3  C9  UNL     1     159.399 159.005 168.997  0.00  0.00    +0.000 A 
ATOM      4  C10 UNL     1     159.381 160.375 168.836  0.00  0.00    +0.000 A 
ATOM      5  C18 UNL     1     158.273 161.069 169.350  0.00  0.00    +0.000 A 
ATOM      6  C19 UNL     1     157.233 160.441 169.990  0.00  0.00    +0.000 A 
ENDROOT
BRANCH   1   8
ATOM      7  O1  UNL     1     156.542 157.371 172.050  0.00  0.00    +0.000 OA
ATOM      8  S1  UNL     1     156.020 158.206 170.922  0.00  0.00    +0.000 S 
ATOM      9  O2  UNL     1     155.046 159.244 171.461  0.00  0.00    +0.000 OA
BRANCH   8  10
ATOM     10  N1  UNL     1     155.163 157.224 169.798  0.00  0.00    +0.000 N 
ATOM     11  H1  UNL     1     154.812 156.301 170.059  0.00  0.00    +0.000 HD
BRANCH  10  12
ATOM     12  C1  UNL     1     154.948 157.721 168.491  0.00  0.00    +0.000 A 
ATOM     13  C2  UNL     1     154.014 158.720 168.320  0.00  0.00    +0.000 A 
ATOM     14  C3  UNL     1     153.759 159.245 167.077  0.00  0.00    +0.000 A 
ATOM     15  C4  UNL     1     154.465 158.744 165.995  0.00  0.00    +0.000 A 
ATOM     16  C5  UNL     1     155.401 157.753 166.120  0.00  0.00    +0.000 A 
ATOM     17  C6  UNL     1     155.629 157.252 167.383  0.00  0.00    +0.000 A 
ENDBRANCH  10  12
ENDBRANCH   8  10
ENDBRANCH   1   8
BRANCH   4  18
ATOM     18  N2  UNL     1     160.393 161.100 168.168  0.00  0.00    +0.000 N 
ATOM     19  H9  UNL     1     160.988 161.753 168.742  0.00  0.00    +0.000 HD
BRANCH  18  20
ATOM     20  C11 UNL     1     160.650 160.999 166.791  0.00  0.00    +0.000 C 
ATOM     21  S2  UNL     1     159.478 161.433 165.699  0.00  0.00    +0.000 S 
BRANCH  20  22
ATOM     22  N3  UNL     1     161.902 160.574 166.319  0.00  0.00    +0.000 N 
ATOM     23  H10 UNL     1     162.477 161.227 165.690  0.00  0.00    +0.000 HD
BRANCH  22  24
ATOM     24  C12 UNL     1     162.453 159.328 166.664  0.00  0.00    +0.000 A 
ATOM     25  C13 UNL     1     161.844 158.210 166.074  0.00  0.00    +0.000 A 
ATOM     26  C14 UNL     1     162.328 156.950 166.317  0.00  0.00    +0.000 A 
ATOM     27  C15 UNL     1     163.413 156.823 167.146  0.00  0.00    +0.000 A 
ATOM     28  C16 UNL     1     164.015 157.919 167.727  0.00  0.00    +0.000 A 
ATOM     29  C17 UNL     1     163.529 159.215 167.487  0.00  0.00    +0.000 A 
ENDBRANCH  22  24
ENDBRANCH  20  22
ENDBRANCH  18  20
ENDBRANCH   4  18
TORSDOF 7
ENDMDL
