MODEL 1
REMARK VINA RESULT:      -4.1      0.000      0.000
REMARK  Name = ./3D_structures\o28_MMV1578554_3D.pdb
REMARK  0 active torsions:
REMARK  status: ('A' for Active; 'I' for Inactive)
REMARK                            x       y       z     vdW  Elec       q    Type
REMARK                         _______ _______ _______ _____ _____    ______ ____
ROOT
ATOM      1 BR1  UNL     1     143.538 163.502 166.638  0.00  0.00    +0.000 Br
ATOM      2  C1  UNL     1     144.330 165.169 166.108  0.00  0.00    +0.000 C 
ATOM      3  C2  UNL     1     145.594 165.522 166.209  0.00  0.00    +0.000 C 
ATOM      4 BR2  UNL     1     146.984 164.445 166.920  0.00  0.00    +0.000 Br
ATOM      5  C3  UNL     1     145.744 166.861 165.690  0.00  0.00    +0.000 C 
ATOM      6  O1  UNL     1     146.824 167.499 165.638  0.00  0.00    +0.000 OA
ATOM      7  N1  UNL     1     144.483 167.304 165.264  0.00  0.00    +0.000 N 
ATOM      8  C4  UNL     1     143.568 166.263 165.513  0.00  0.00    +0.000 C 
ATOM      9  O2  UNL     1     142.323 166.245 165.278  0.00  0.00    +0.000 OA
ATOM     10  H1  UNL     1     144.259 168.222 164.844  0.00  0.00    +0.000 HD
ENDROOT
TORSDOF 0
ENDMDL
MODEL 2
REMARK VINA RESULT:      -3.9      1.164      3.030
REMARK  Name = ./3D_structures\o28_MMV1578554_3D.pdb
REMARK  0 active torsions:
REMARK  status: ('A' for Active; 'I' for Inactive)
REMARK                            x       y       z     vdW  Elec       q    Type
REMARK                         _______ _______ _______ _____ _____    ______ ____
ROOT
ATOM      1 BR1  UNL     1     147.722 165.778 166.447  0.00  0.00    +0.000 Br
ATOM      2  C1  UNL     1     145.856 165.931 166.025  0.00  0.00    +0.000 C 
ATOM      3  C2  UNL     1     144.970 164.961 165.944  0.00  0.00    +0.000 C 
ATOM      4 BR2  UNL     1     145.328 163.119 166.230  0.00  0.00    +0.000 Br
ATOM      5  C3  UNL     1     143.689 165.529 165.600  0.00  0.00    +0.000 C 
ATOM      6  O1  UNL     1     142.628 164.877 165.444  0.00  0.00    +0.000 OA
ATOM      7  N1  UNL     1     143.850 166.917 165.477  0.00  0.00    +0.000 N 
ATOM      8  C4  UNL     1     145.203 167.206 165.738  0.00  0.00    +0.000 C 
ATOM      9  O2  UNL     1     145.775 168.336 165.734  0.00  0.00    +0.000 OA
ATOM     10  H1  UNL     1     143.117 167.606 165.240  0.00  0.00    +0.000 HD
ENDROOT
TORSDOF 0
ENDMDL
MODEL 3
REMARK VINA RESULT:      -3.7      2.652      4.059
REMARK  Name = ./3D_structures\o28_MMV1578554_3D.pdb
REMARK  0 active torsions:
REMARK  status: ('A' for Active; 'I' for Inactive)
REMARK                            x       y       z     vdW  Elec       q    Type
REMARK                         _______ _______ _______ _____ _____    ______ ____
ROOT
ATOM      1 BR1  UNL     1     147.484 162.689 167.585  0.00  0.00    +0.000 Br
ATOM      2  C1  UNL     1     147.576 164.447 166.820  0.00  0.00    +0.000 C 
ATOM      3  C2  UNL     1     146.571 165.228 166.485  0.00  0.00    +0.000 C 
ATOM      4 BR2  UNL     1     144.732 164.800 166.681  0.00  0.00    +0.000 Br
ATOM      5  C3  UNL     1     147.099 166.458 165.946  0.00  0.00    +0.000 C 
ATOM      6  O1  UNL     1     146.408 167.420 165.531  0.00  0.00    +0.000 OA
ATOM      7  N1  UNL     1     148.499 166.378 165.974  0.00  0.00    +0.000 N 
ATOM      8  C4  UNL     1     148.835 165.123 166.518  0.00  0.00    +0.000 C 
ATOM      9  O2  UNL     1     149.990 164.643 166.722  0.00  0.00    +0.000 OA
ATOM     10  H1  UNL     1     149.167 167.100 165.657  0.00  0.00    +0.000 HD
ENDROOT
TORSDOF 0
ENDMDL
MODEL 4
REMARK VINA RESULT:      -3.7      2.716      3.372
REMARK  Name = ./3D_structures\o28_MMV1578554_3D.pdb
REMARK  0 active torsions:
REMARK  status: ('A' for Active; 'I' for Inactive)
REMARK                            x       y       z     vdW  Elec       q    Type
REMARK                         _______ _______ _______ _____ _____    ______ ____
ROOT
ATOM      1 BR1  UNL     1     144.818 164.787 166.732  0.00  0.00    +0.000 Br
ATOM      2  C1  UNL     1     146.683 165.186 166.520  0.00  0.00    +0.000 C 
ATOM      3  C2  UNL     1     147.707 164.421 166.838  0.00  0.00    +0.000 C 
ATOM      4 BR2  UNL     1     147.590 162.690 167.606  0.00  0.00    +0.000 Br
ATOM      5  C3  UNL     1     148.927 165.118 166.508  0.00  0.00    +0.000 C 
ATOM      6  O1  UNL     1     150.085 164.669 166.684  0.00  0.00    +0.000 OA
ATOM      7  N1  UNL     1     148.580 166.364 165.964  0.00  0.00    +0.000 N 
ATOM      8  C4  UNL     1     147.175 166.440 165.957  0.00  0.00    +0.000 C 
ATOM      9  O2  UNL     1     146.446 167.394 165.549  0.00  0.00    +0.000 OA
ATOM     10  H1  UNL     1     149.230 167.095 165.628  0.00  0.00    +0.000 HD
ENDROOT
TORSDOF 0
ENDMDL
MODEL 5
REMARK VINA RESULT:      -3.6     27.066     27.752
REMARK  Name = ./3D_structures\o28_MMV1578554_3D.pdb
REMARK  0 active torsions:
REMARK  status: ('A' for Active; 'I' for Inactive)
REMARK                            x       y       z     vdW  Elec       q    Type
REMARK                         _______ _______ _______ _____ _____    ______ ____
ROOT
ATOM      1 BR1  UNL     1     160.279 144.053 167.887  0.00  0.00    +0.000 Br
ATOM      2  C1  UNL     1     160.767 144.086 169.743  0.00  0.00    +0.000 C 
ATOM      3  C2  UNL     1     161.639 143.314 170.356  0.00  0.00    +0.000 C 
ATOM      4 BR2  UNL     1     162.659 141.939 169.535  0.00  0.00    +0.000 Br
ATOM      5  C3  UNL     1     161.690 143.685 171.749  0.00  0.00    +0.000 C 
ATOM      6  O1  UNL     1     162.422 143.146 172.615  0.00  0.00    +0.000 OA
ATOM      7  N1  UNL     1     160.787 144.740 171.949  0.00  0.00    +0.000 N 
ATOM      8  C4  UNL     1     160.188 145.018 170.706  0.00  0.00    +0.000 C 
ATOM      9  O2  UNL     1     159.315 145.898 170.439  0.00  0.00    +0.000 OA
ATOM     10  H1  UNL     1     160.593 145.228 172.840  0.00  0.00    +0.000 HD
ENDROOT
TORSDOF 0
ENDMDL
MODEL 6
REMARK VINA RESULT:      -3.5     13.861     14.882
REMARK  Name = ./3D_structures\o28_MMV1578554_3D.pdb
REMARK  0 active torsions:
REMARK  status: ('A' for Active; 'I' for Inactive)
REMARK                            x       y       z     vdW  Elec       q    Type
REMARK                         _______ _______ _______ _____ _____    ______ ____
ROOT
ATOM      1 BR1  UNL     1     156.280 158.848 171.791  0.00  0.00    +0.000 Br
ATOM      2  C1  UNL     1     156.470 158.166 170.007  0.00  0.00    +0.000 C 
ATOM      3  C2  UNL     1     155.509 157.830 169.171  0.00  0.00    +0.000 C 
ATOM      4 BR2  UNL     1     153.650 157.938 169.533  0.00  0.00    +0.000 Br
ATOM      5  C3  UNL     1     156.105 157.367 167.941  0.00  0.00    +0.000 C 
ATOM      6  O1  UNL     1     155.468 156.970 166.935  0.00  0.00    +0.000 OA
ATOM      7  N1  UNL     1     157.499 157.443 168.079  0.00  0.00    +0.000 N 
ATOM      8  C4  UNL     1     157.764 157.942 169.369  0.00  0.00    +0.000 C 
ATOM      9  O2  UNL     1     158.891 158.166 169.903  0.00  0.00    +0.000 OA
ATOM     10  H1  UNL     1     158.206 157.183 167.372  0.00  0.00    +0.000 HD
ENDROOT
TORSDOF 0
ENDMDL
MODEL 7
REMARK VINA RESULT:      -3.5      2.755      3.065
REMARK  Name = ./3D_structures\o28_MMV1578554_3D.pdb
REMARK  0 active torsions:
REMARK  status: ('A' for Active; 'I' for Inactive)
REMARK                            x       y       z     vdW  Elec       q    Type
REMARK                         _______ _______ _______ _____ _____    ______ ____
ROOT
ATOM      1 BR1  UNL     1     147.938 163.329 168.830  0.00  0.00    +0.000 Br
ATOM      2  C1  UNL     1     146.954 164.542 167.714  0.00  0.00    +0.000 C 
ATOM      3  C2  UNL     1     147.438 165.387 166.828  0.00  0.00    +0.000 C 
ATOM      4 BR2  UNL     1     149.277 165.623 166.424  0.00  0.00    +0.000 Br
ATOM      5  C3  UNL     1     146.341 166.101 166.221  0.00  0.00    +0.000 C 
ATOM      6  O1  UNL     1     146.455 166.982 165.334  0.00  0.00    +0.000 OA
ATOM      7  N1  UNL     1     145.149 165.635 166.795  0.00  0.00    +0.000 N 
ATOM      8  C4  UNL     1     145.498 164.652 167.741  0.00  0.00    +0.000 C 
ATOM      9  O2  UNL     1     144.727 163.975 168.485  0.00  0.00    +0.000 OA
ATOM     10  H1  UNL     1     144.190 165.948 166.571  0.00  0.00    +0.000 HD
ENDROOT
TORSDOF 0
ENDMDL
MODEL 8
REMARK VINA RESULT:      -3.5     27.851     28.511
REMARK  Name = ./3D_structures\o28_MMV1578554_3D.pdb
REMARK  0 active torsions:
REMARK  status: ('A' for Active; 'I' for Inactive)
REMARK                            x       y       z     vdW  Elec       q    Type
REMARK                         _______ _______ _______ _____ _____    ______ ____
ROOT
ATOM      1 BR1  UNL     1     160.120 143.727 167.635  0.00  0.00    +0.000 Br
ATOM      2  C1  UNL     1     161.083 143.358 169.254  0.00  0.00    +0.000 C 
ATOM      3  C2  UNL     1     161.034 144.029 170.386  0.00  0.00    +0.000 C 
ATOM      4 BR2  UNL     1     159.971 145.568 170.707  0.00  0.00    +0.000 Br
ATOM      5  C3  UNL     1     161.921 143.401 171.336  0.00  0.00    +0.000 C 
ATOM      6  O1  UNL     1     162.110 143.791 172.514  0.00  0.00    +0.000 OA
ATOM      7  N1  UNL     1     162.518 142.298 170.708  0.00  0.00    +0.000 N 
ATOM      8  C4  UNL     1     162.013 142.241 169.395  0.00  0.00    +0.000 C 
ATOM      9  O2  UNL     1     162.288 141.399 168.488  0.00  0.00    +0.000 OA
ATOM     10  H1  UNL     1     163.201 141.643 171.125  0.00  0.00    +0.000 HD
ENDROOT
TORSDOF 0
ENDMDL
MODEL 9
REMARK VINA RESULT:      -3.5      4.046      4.477
REMARK  Name = ./3D_structures\o28_MMV1578554_3D.pdb
REMARK  0 active torsions:
REMARK  status: ('A' for Active; 'I' for Inactive)
REMARK                            x       y       z     vdW  Elec       q    Type
REMARK                         _______ _______ _______ _____ _____    ______ ____
ROOT
ATOM      1 BR1  UNL     1     146.515 164.869 166.021  0.00  0.00    +0.000 Br
ATOM      2  C1  UNL     1     146.823 164.790 167.914  0.00  0.00    +0.000 C 
ATOM      3  C2  UNL     1     147.919 165.126 168.561  0.00  0.00    +0.000 C 
ATOM      4 BR2  UNL     1     149.508 165.789 167.764  0.00  0.00    +0.000 Br
ATOM      5  C3  UNL     1     147.710 164.906 169.972  0.00  0.00    +0.000 C 
ATOM      6  O1  UNL     1     148.559 165.126 170.871  0.00  0.00    +0.000 OA
ATOM      7  N1  UNL     1     146.409 164.412 170.146  0.00  0.00    +0.000 N 
ATOM      8  C4  UNL     1     145.821 164.325 168.870  0.00  0.00    +0.000 C 
ATOM      9  O2  UNL     1     144.655 163.929 168.572  0.00  0.00    +0.000 OA
ATOM     10  H1  UNL     1     145.958 164.156 171.040  0.00  0.00    +0.000 HD
ENDROOT
TORSDOF 0
ENDMDL
