MODEL 1
REMARK VINA RESULT:      -6.3      0.000      0.000
REMARK  Name = ./3D_structures\o2_MMV1782140_3D.pdb
REMARK  2 active torsions:
REMARK  status: ('A' for Active; 'I' for Inactive)
REMARK    1  A    between atoms: C4_5  and  C5_6
REMARK    2  A    between atoms: C7_12  and  C8_14
REMARK                            x       y       z     vdW  Elec       q    Type
REMARK                         _______ _______ _______ _____ _____    ______ ____
ROOT
ATOM      1  C5  UNL     1     157.536 156.075 165.824  0.00  0.00    +0.000 A 
ATOM      2  N1  UNL     1     156.246 156.147 165.478  0.00  0.00    +0.000 NA
ATOM      3  N2  UNL     1     155.597 156.854 166.384  0.00  0.00    +0.000 NA
ATOM      4  C6  UNL     1     156.491 157.229 167.309  0.00  0.00    +0.000 A 
ATOM      5  O1  UNL     1     157.647 156.749 166.949  0.00  0.00    +0.000 OA
ATOM      6  N3  UNL     1     156.199 158.012 168.465  0.00  0.00    +0.000 N 
ATOM      7  C7  UNL     1     157.194 158.372 169.400  0.00  0.00    +0.000 C 
ATOM      8  O2  UNL     1     158.368 157.962 169.160  0.00  0.00    +0.000 OA
ATOM      9  H3  UNL     1     155.216 158.352 168.659  0.00  0.00    +0.000 HD
ENDROOT
BRANCH   1  14
ATOM     10 CL1  UNL     1     161.868 153.119 162.904  0.00  0.00    +0.000 Cl
ATOM     11  C1  UNL     1     160.637 154.023 163.755  0.00  0.00    +0.000 A 
ATOM     12  C2  UNL     1     159.439 153.386 164.073  0.00  0.00    +0.000 A 
ATOM     13  C3  UNL     1     158.451 154.070 164.742  0.00  0.00    +0.000 A 
ATOM     14  C4  UNL     1     158.623 155.390 165.110  0.00  0.00    +0.000 A 
ATOM     15  C14 UNL     1     159.787 156.022 164.805  0.00  0.00    +0.000 A 
ATOM     16  C15 UNL     1     160.782 155.336 164.131  0.00  0.00    +0.000 A 
ENDBRANCH   1  14
BRANCH   7  17
ATOM     17  C8  UNL     1     156.926 159.170 170.587  0.00  0.00    +0.000 A 
ATOM     18  C9  UNL     1     156.231 158.726 171.683  0.00  0.00    +0.000 A 
ATOM     19  C10 UNL     1     156.000 159.535 172.803  0.00  0.00    +0.000 A 
ATOM     20  C11 UNL     1     156.474 160.818 172.836  0.00  0.00    +0.000 A 
ATOM     21  F1  UNL     1     156.246 161.593 173.925  0.00  0.00    +0.000 F 
ATOM     22  C12 UNL     1     157.174 161.273 171.740  0.00  0.00    +0.000 A 
ATOM     23  C13 UNL     1     157.401 160.480 170.638  0.00  0.00    +0.000 A 
ENDBRANCH   7  17
TORSDOF 2
ENDMDL
MODEL 2
REMARK VINA RESULT:      -6.3      9.646     11.939
REMARK  Name = ./3D_structures\o2_MMV1782140_3D.pdb
REMARK  2 active torsions:
REMARK  status: ('A' for Active; 'I' for Inactive)
REMARK    1  A    between atoms: C4_5  and  C5_6
REMARK    2  A    between atoms: C7_12  and  C8_14
REMARK                            x       y       z     vdW  Elec       q    Type
REMARK                         _______ _______ _______ _____ _____    ______ ____
ROOT
ATOM      1  C5  UNL     1     148.627 163.069 167.825  0.00  0.00    +0.000 A 
ATOM      2  N1  UNL     1     148.483 162.356 168.947  0.00  0.00    +0.000 NA
ATOM      3  N2  UNL     1     149.473 161.487 169.033  0.00  0.00    +0.000 NA
ATOM      4  C6  UNL     1     150.246 161.659 167.952  0.00  0.00    +0.000 A 
ATOM      5  O1  UNL     1     149.716 162.615 167.243  0.00  0.00    +0.000 OA
ATOM      6  N3  UNL     1     151.429 160.915 167.660  0.00  0.00    +0.000 N 
ATOM      7  C7  UNL     1     152.196 161.150 166.500  0.00  0.00    +0.000 C 
ATOM      8  O2  UNL     1     151.782 162.062 165.724  0.00  0.00    +0.000 OA
ATOM      9  H3  UNL     1     151.769 160.156 168.313  0.00  0.00    +0.000 HD
ENDROOT
BRANCH   1  14
ATOM     10 CL1  UNL     1     145.238 167.547 165.704  0.00  0.00    +0.000 Cl
ATOM     11  C1  UNL     1     146.181 166.221 166.342  0.00  0.00    +0.000 A 
ATOM     12  C2  UNL     1     147.559 166.215 166.128  0.00  0.00    +0.000 A 
ATOM     13  C3  UNL     1     148.328 165.185 166.617  0.00  0.00    +0.000 A 
ATOM     14  C4  UNL     1     147.759 164.145 167.324  0.00  0.00    +0.000 A 
ATOM     15  C14 UNL     1     146.417 164.139 167.539  0.00  0.00    +0.000 A 
ATOM     16  C15 UNL     1     145.641 165.173 167.047  0.00  0.00    +0.000 A 
ENDBRANCH   1  14
BRANCH   7  17
ATOM     17  C8  UNL     1     153.406 160.409 166.177  0.00  0.00    +0.000 A 
ATOM     18  C9  UNL     1     153.723 159.175 166.686  0.00  0.00    +0.000 A 
ATOM     19  C10 UNL     1     154.902 158.502 166.342  0.00  0.00    +0.000 A 
ATOM     20  C11 UNL     1     155.789 159.068 165.468  0.00  0.00    +0.000 A 
ATOM     21  F1  UNL     1     156.927 158.408 165.140  0.00  0.00    +0.000 F 
ATOM     22  C12 UNL     1     155.480 160.307 164.949  0.00  0.00    +0.000 A 
ATOM     23  C13 UNL     1     154.322 160.971 165.287  0.00  0.00    +0.000 A 
ENDBRANCH   7  17
TORSDOF 2
ENDMDL
MODEL 3
REMARK VINA RESULT:      -6.3     14.787     17.069
REMARK  Name = ./3D_structures\o2_MMV1782140_3D.pdb
REMARK  2 active torsions:
REMARK  status: ('A' for Active; 'I' for Inactive)
REMARK    1  A    between atoms: C4_5  and  C5_6
REMARK    2  A    between atoms: C7_12  and  C8_14
REMARK                            x       y       z     vdW  Elec       q    Type
REMARK                         _______ _______ _______ _____ _____    ______ ____
ROOT
ATOM      1  C5  UNL     1     162.400 139.492 163.489  0.00  0.00    +0.000 A 
ATOM      2  N1  UNL     1     161.420 138.617 163.741  0.00  0.00    +0.000 NA
ATOM      3  N2  UNL     1     160.804 138.972 164.853  0.00  0.00    +0.000 NA
ATOM      4  C6  UNL     1     161.405 140.082 165.303  0.00  0.00    +0.000 A 
ATOM      5  O1  UNL     1     162.360 140.373 164.466  0.00  0.00    +0.000 OA
ATOM      6  N3  UNL     1     161.042 140.792 166.486  0.00  0.00    +0.000 N 
ATOM      7  C7  UNL     1     161.722 141.957 166.900  0.00  0.00    +0.000 C 
ATOM      8  O2  UNL     1     162.678 142.346 166.165  0.00  0.00    +0.000 OA
ATOM      9  H3  UNL     1     160.243 140.463 167.095  0.00  0.00    +0.000 HD
ENDROOT
BRANCH   1  14
ATOM     10 CL1  UNL     1     166.350 139.609 158.970  0.00  0.00    +0.000 Cl
ATOM     11  C1  UNL     1     165.171 139.540 160.259  0.00  0.00    +0.000 A 
ATOM     12  C2  UNL     1     165.369 140.329 161.391  0.00  0.00    +0.000 A 
ATOM     13  C3  UNL     1     164.460 140.296 162.422  0.00  0.00    +0.000 A 
ATOM     14  C4  UNL     1     163.342 139.489 162.359  0.00  0.00    +0.000 A 
ATOM     15  C14 UNL     1     163.137 138.714 161.261  0.00  0.00    +0.000 A 
ATOM     16  C15 UNL     1     164.051 138.745 160.223  0.00  0.00    +0.000 A 
ENDBRANCH   1  14
BRANCH   7  17
ATOM     17  C8  UNL     1     161.374 142.703 168.101  0.00  0.00    +0.000 A 
ATOM     18  C9  UNL     1     162.017 142.581 169.307  0.00  0.00    +0.000 A 
ATOM     19  C10 UNL     1     161.642 143.323 170.434  0.00  0.00    +0.000 A 
ATOM     20  C11 UNL     1     160.604 144.210 170.362  0.00  0.00    +0.000 A 
ATOM     21  F1  UNL     1     160.250 144.924 171.459  0.00  0.00    +0.000 F 
ATOM     22  C12 UNL     1     159.952 144.341 169.155  0.00  0.00    +0.000 A 
ATOM     23  C13 UNL     1     160.317 143.611 168.046  0.00  0.00    +0.000 A 
ENDBRANCH   7  17
TORSDOF 2
ENDMDL
MODEL 4
REMARK VINA RESULT:      -6.3      5.017      8.999
REMARK  Name = ./3D_structures\o2_MMV1782140_3D.pdb
REMARK  2 active torsions:
REMARK  status: ('A' for Active; 'I' for Inactive)
REMARK    1  A    between atoms: C4_5  and  C5_6
REMARK    2  A    between atoms: C7_12  and  C8_14
REMARK                            x       y       z     vdW  Elec       q    Type
REMARK                         _______ _______ _______ _____ _____    ______ ____
ROOT
ATOM      1  C5  UNL     1     156.651 158.851 170.888  0.00  0.00    +0.000 A 
ATOM      2  N1  UNL     1     157.894 158.583 171.303  0.00  0.00    +0.000 NA
ATOM      3  N2  UNL     1     158.583 158.080 170.295  0.00  0.00    +0.000 NA
ATOM      4  C6  UNL     1     157.762 158.033 169.237  0.00  0.00    +0.000 A 
ATOM      5  O1  UNL     1     156.608 158.502 169.620  0.00  0.00    +0.000 OA
ATOM      6  N3  UNL     1     158.116 157.552 167.941  0.00  0.00    +0.000 N 
ATOM      7  C7  UNL     1     157.198 157.532 166.871  0.00  0.00    +0.000 C 
ATOM      8  O2  UNL     1     156.033 157.965 167.117  0.00  0.00    +0.000 OA
ATOM      9  H3  UNL     1     159.091 157.193 167.742  0.00  0.00    +0.000 HD
ENDROOT
BRANCH   1  14
ATOM     10 CL1  UNL     1     152.022 161.172 173.925  0.00  0.00    +0.000 Cl
ATOM     11  C1  UNL     1     153.398 160.497 173.085  0.00  0.00    +0.000 A 
ATOM     12  C2  UNL     1     153.284 160.222 171.723  0.00  0.00    +0.000 A 
ATOM     13  C3  UNL     1     154.349 159.691 171.035  0.00  0.00    +0.000 A 
ATOM     14  C4  UNL     1     155.543 159.419 171.671  0.00  0.00    +0.000 A 
ATOM     15  C14 UNL     1     155.668 159.681 172.999  0.00  0.00    +0.000 A 
ATOM     16  C15 UNL     1     154.597 160.216 173.694  0.00  0.00    +0.000 A 
ENDBRANCH   1  14
BRANCH   7  17
ATOM     17  C8  UNL     1     157.530 157.049 165.539  0.00  0.00    +0.000 A 
ATOM     18  C9  UNL     1     157.521 155.729 165.164  0.00  0.00    +0.000 A 
ATOM     19  C10 UNL     1     157.849 155.315 163.867  0.00  0.00    +0.000 A 
ATOM     20  C11 UNL     1     158.196 156.236 162.917  0.00  0.00    +0.000 A 
ATOM     21  F1  UNL     1     158.512 155.825 161.664  0.00  0.00    +0.000 F 
ATOM     22  C12 UNL     1     158.208 157.564 163.283  0.00  0.00    +0.000 A 
ATOM     23  C13 UNL     1     157.886 157.974 164.557  0.00  0.00    +0.000 A 
ENDBRANCH   7  17
TORSDOF 2
ENDMDL
MODEL 5
REMARK VINA RESULT:      -6.2      8.409     10.746
REMARK  Name = ./3D_structures\o2_MMV1782140_3D.pdb
REMARK  2 active torsions:
REMARK  status: ('A' for Active; 'I' for Inactive)
REMARK    1  A    between atoms: C4_5  and  C5_6
REMARK    2  A    between atoms: C7_12  and  C8_14
REMARK                            x       y       z     vdW  Elec       q    Type
REMARK                         _______ _______ _______ _____ _____    ______ ____
ROOT
ATOM      1  C5  UNL     1     149.709 162.294 168.299  0.00  0.00    +0.000 A 
ATOM      2  N1  UNL     1     149.395 161.734 169.473  0.00  0.00    +0.000 NA
ATOM      3  N2  UNL     1     150.242 160.753 169.721  0.00  0.00    +0.000 NA
ATOM      4  C6  UNL     1     151.098 160.697 168.692  0.00  0.00    +0.000 A 
ATOM      5  O1  UNL     1     150.756 161.633 167.852  0.00  0.00    +0.000 OA
ATOM      6  N3  UNL     1     152.177 159.772 168.567  0.00  0.00    +0.000 N 
ATOM      7  C7  UNL     1     153.040 159.771 167.452  0.00  0.00    +0.000 C 
ATOM      8  O2  UNL     1     152.811 160.640 166.558  0.00  0.00    +0.000 OA
ATOM      9  H3  UNL     1     152.363 159.050 169.317  0.00  0.00    +0.000 HD
ENDROOT
BRANCH   1  14
ATOM     10 CL1  UNL     1     146.801 166.791 165.590  0.00  0.00    +0.000 Cl
ATOM     11  C1  UNL     1     147.693 165.506 166.369  0.00  0.00    +0.000 A 
ATOM     12  C2  UNL     1     146.988 164.426 166.898  0.00  0.00    +0.000 A 
ATOM     13  C3  UNL     1     147.662 163.400 167.517  0.00  0.00    +0.000 A 
ATOM     14  C4  UNL     1     149.038 163.416 167.628  0.00  0.00    +0.000 A 
ATOM     15  C14 UNL     1     149.737 164.464 167.117  0.00  0.00    +0.000 A 
ATOM     16  C15 UNL     1     149.061 165.498 166.494  0.00  0.00    +0.000 A 
ENDBRANCH   1  14
BRANCH   7  17
ATOM     17  C8  UNL     1     154.148 158.840 167.297  0.00  0.00    +0.000 A 
ATOM     18  C9  UNL     1     154.669 158.442 166.092  0.00  0.00    +0.000 A 
ATOM     19  C10 UNL     1     155.738 157.542 165.998  0.00  0.00    +0.000 A 
ATOM     20  C11 UNL     1     156.306 157.025 167.129  0.00  0.00    +0.000 A 
ATOM     21  F1  UNL     1     157.341 156.155 167.028  0.00  0.00    +0.000 F 
ATOM     22  C12 UNL     1     155.791 157.419 168.345  0.00  0.00    +0.000 A 
ATOM     23  C13 UNL     1     154.740 158.303 168.441  0.00  0.00    +0.000 A 
ENDBRANCH   7  17
TORSDOF 2
ENDMDL
MODEL 6
REMARK VINA RESULT:      -6.2     10.558     12.565
REMARK  Name = ./3D_structures\o2_MMV1782140_3D.pdb
REMARK  2 active torsions:
REMARK  status: ('A' for Active; 'I' for Inactive)
REMARK    1  A    between atoms: C4_5  and  C5_6
REMARK    2  A    between atoms: C7_12  and  C8_14
REMARK                            x       y       z     vdW  Elec       q    Type
REMARK                         _______ _______ _______ _____ _____    ______ ____
ROOT
ATOM      1  C5  UNL     1     148.642 165.115 166.753  0.00  0.00    +0.000 A 
ATOM      2  N1  UNL     1     149.535 166.025 167.156  0.00  0.00    +0.000 NA
ATOM      3  N2  UNL     1     150.686 165.422 167.390  0.00  0.00    +0.000 NA
ATOM      4  C6  UNL     1     150.511 164.119 167.130  0.00  0.00    +0.000 A 
ATOM      5  O1  UNL     1     149.275 163.962 166.749  0.00  0.00    +0.000 OA
ATOM      6  N3  UNL     1     151.515 163.113 167.256  0.00  0.00    +0.000 N 
ATOM      7  C7  UNL     1     151.260 161.757 166.963  0.00  0.00    +0.000 C 
ATOM      8  O2  UNL     1     150.086 161.472 166.580  0.00  0.00    +0.000 OA
ATOM      9  H3  UNL     1     152.493 163.358 167.575  0.00  0.00    +0.000 HD
ENDROOT
BRANCH   1  14
ATOM     10 CL1  UNL     1     142.864 165.831 165.292  0.00  0.00    +0.000 Cl
ATOM     11  C1  UNL     1     144.555 165.673 165.705  0.00  0.00    +0.000 A 
ATOM     12  C2  UNL     1     145.022 164.441 166.158  0.00  0.00    +0.000 A 
ATOM     13  C3  UNL     1     146.347 164.285 166.490  0.00  0.00    +0.000 A 
ATOM     14  C4  UNL     1     147.235 165.335 166.384  0.00  0.00    +0.000 A 
ATOM     15  C14 UNL     1     146.793 166.543 165.944  0.00  0.00    +0.000 A 
ATOM     16  C15 UNL     1     145.460 166.703 165.609  0.00  0.00    +0.000 A 
ENDBRANCH   1  14
BRANCH   7  17
ATOM     17  C8  UNL     1     152.264 160.710 167.082  0.00  0.00    +0.000 A 
ATOM     18  C9  UNL     1     152.541 160.023 168.238  0.00  0.00    +0.000 A 
ATOM     19  C10 UNL     1     153.518 159.023 168.299  0.00  0.00    +0.000 A 
ATOM     20  C11 UNL     1     154.238 158.692 167.184  0.00  0.00    +0.000 A 
ATOM     21  F1  UNL     1     155.182 157.721 167.253  0.00  0.00    +0.000 F 
ATOM     22  C12 UNL     1     153.967 159.375 166.018  0.00  0.00    +0.000 A 
ATOM     23  C13 UNL     1     153.008 160.361 165.955  0.00  0.00    +0.000 A 
ENDBRANCH   7  17
TORSDOF 2
ENDMDL
MODEL 7
REMARK VINA RESULT:      -6.1      4.897      8.849
REMARK  Name = ./3D_structures\o2_MMV1782140_3D.pdb
REMARK  2 active torsions:
REMARK  status: ('A' for Active; 'I' for Inactive)
REMARK    1  A    between atoms: C4_5  and  C5_6
REMARK    2  A    between atoms: C7_12  and  C8_14
REMARK                            x       y       z     vdW  Elec       q    Type
REMARK                         _______ _______ _______ _____ _____    ______ ____
ROOT
ATOM      1  C5  UNL     1     158.565 159.001 169.002  0.00  0.00    +0.000 A 
ATOM      2  N1  UNL     1     159.717 159.544 168.593  0.00  0.00    +0.000 NA
ATOM      3  N2  UNL     1     160.092 158.961 167.470  0.00  0.00    +0.000 NA
ATOM      4  C6  UNL     1     159.163 158.043 167.170  0.00  0.00    +0.000 A 
ATOM      5  O1  UNL     1     158.257 158.087 168.106  0.00  0.00    +0.000 OA
ATOM      6  N3  UNL     1     159.189 157.188 166.028  0.00  0.00    +0.000 N 
ATOM      7  C7  UNL     1     158.174 156.242 165.775  0.00  0.00    +0.000 C 
ATOM      8  O2  UNL     1     157.230 156.186 166.618  0.00  0.00    +0.000 OA
ATOM      9  H3  UNL     1     159.979 157.240 165.327  0.00  0.00    +0.000 HD
ENDROOT
BRANCH   1  14
ATOM     10 CL1  UNL     1     155.345 160.197 173.925  0.00  0.00    +0.000 Cl
ATOM     11  C1  UNL     1     156.292 159.900 172.485  0.00  0.00    +0.000 A 
ATOM     12  C2  UNL     1     156.460 158.586 172.053  0.00  0.00    +0.000 A 
ATOM     13  C3  UNL     1     157.199 158.320 170.924  0.00  0.00    +0.000 A 
ATOM     14  C4  UNL     1     157.785 159.339 170.201  0.00  0.00    +0.000 A 
ATOM     15  C14 UNL     1     157.630 160.626 170.612  0.00  0.00    +0.000 A 
ATOM     16  C15 UNL     1     156.887 160.895 171.748  0.00  0.00    +0.000 A 
ENDBRANCH   1  14
BRANCH   7  17
ATOM     17  C8  UNL     1     158.173 155.358 164.619  0.00  0.00    +0.000 A 
ATOM     18  C9  UNL     1     157.578 155.648 163.417  0.00  0.00    +0.000 A 
ATOM     19  C10 UNL     1     157.606 154.762 162.333  0.00  0.00    +0.000 A 
ATOM     20  C11 UNL     1     158.242 153.556 162.445  0.00  0.00    +0.000 A 
ATOM     21  F1  UNL     1     158.264 152.705 161.389  0.00  0.00    +0.000 F 
ATOM     22  C12 UNL     1     158.843 153.255 163.648  0.00  0.00    +0.000 A 
ATOM     23  C13 UNL     1     158.816 154.124 164.715  0.00  0.00    +0.000 A 
ENDBRANCH   7  17
TORSDOF 2
ENDMDL
MODEL 8
REMARK VINA RESULT:      -6.1     14.505     17.918
REMARK  Name = ./3D_structures\o2_MMV1782140_3D.pdb
REMARK  2 active torsions:
REMARK  status: ('A' for Active; 'I' for Inactive)
REMARK    1  A    between atoms: C4_5  and  C5_6
REMARK    2  A    between atoms: C7_12  and  C8_14
REMARK                            x       y       z     vdW  Elec       q    Type
REMARK                         _______ _______ _______ _____ _____    ______ ____
ROOT
ATOM      1  C5  UNL     1     160.526 143.502 168.036  0.00  0.00    +0.000 A 
ATOM      2  N1  UNL     1     159.471 143.749 167.252  0.00  0.00    +0.000 NA
ATOM      3  N2  UNL     1     159.677 143.199 166.070  0.00  0.00    +0.000 NA
ATOM      4  C6  UNL     1     160.875 142.600 166.114  0.00  0.00    +0.000 A 
ATOM      5  O1  UNL     1     161.364 142.797 167.306  0.00  0.00    +0.000 OA
ATOM      6  N3  UNL     1     161.477 141.885 165.037  0.00  0.00    +0.000 N 
ATOM      7  C7  UNL     1     162.745 141.278 165.154  0.00  0.00    +0.000 C 
ATOM      8  O2  UNL     1     163.328 141.399 166.272  0.00  0.00    +0.000 OA
ATOM      9  H3  UNL     1     160.984 141.787 164.106  0.00  0.00    +0.000 HD
ENDROOT
BRANCH   1  14
ATOM     10 CL1  UNL     1     161.486 145.074 173.749  0.00  0.00    +0.000 Cl
ATOM     11  C1  UNL     1     161.172 144.656 172.081  0.00  0.00    +0.000 A 
ATOM     12  C2  UNL     1     161.849 143.573 171.524  0.00  0.00    +0.000 A 
ATOM     13  C3  UNL     1     161.623 143.219 170.214  0.00  0.00    +0.000 A 
ATOM     14  C4  UNL     1     160.730 143.922 169.431  0.00  0.00    +0.000 A 
ATOM     15  C14 UNL     1     160.064 144.981 169.962  0.00  0.00    +0.000 A 
ATOM     16  C15 UNL     1     160.290 145.339 171.280  0.00  0.00    +0.000 A 
ENDBRANCH   1  14
BRANCH   7  17
ATOM     17  C8  UNL     1     163.384 140.542 164.073  0.00  0.00    +0.000 A 
ATOM     18  C9  UNL     1     162.765 139.583 163.312  0.00  0.00    +0.000 A 
ATOM     19  C10 UNL     1     163.425 138.902 162.281  0.00  0.00    +0.000 A 
ATOM     20  C11 UNL     1     164.734 139.182 161.998  0.00  0.00    +0.000 A 
ATOM     21  F1  UNL     1     165.364 138.518 160.998  0.00  0.00    +0.000 F 
ATOM     22  C12 UNL     1     165.365 140.144 162.757  0.00  0.00    +0.000 A 
ATOM     23  C13 UNL     1     164.718 140.814 163.771  0.00  0.00    +0.000 A 
ENDBRANCH   7  17
TORSDOF 2
ENDMDL
MODEL 9
REMARK VINA RESULT:      -6.0      2.112      2.641
REMARK  Name = ./3D_structures\o2_MMV1782140_3D.pdb
REMARK  2 active torsions:
REMARK  status: ('A' for Active; 'I' for Inactive)
REMARK    1  A    between atoms: C4_5  and  C5_6
REMARK    2  A    between atoms: C7_12  and  C8_14
REMARK                            x       y       z     vdW  Elec       q    Type
REMARK                         _______ _______ _______ _____ _____    ______ ____
ROOT
ATOM      1  C5  UNL     1     158.896 156.014 164.949  0.00  0.00    +0.000 A 
ATOM      2  N1  UNL     1     159.858 156.888 164.634  0.00  0.00    +0.000 NA
ATOM      3  N2  UNL     1     159.913 157.820 165.567  0.00  0.00    +0.000 NA
ATOM      4  C6  UNL     1     158.974 157.526 166.478  0.00  0.00    +0.000 A 
ATOM      5  O1  UNL     1     158.378 156.437 166.083  0.00  0.00    +0.000 OA
ATOM      6  N3  UNL     1     158.703 158.285 167.655  0.00  0.00    +0.000 N 
ATOM      7  C7  UNL     1     157.697 157.915 168.572  0.00  0.00    +0.000 C 
ATOM      8  O2  UNL     1     157.041 156.866 168.299  0.00  0.00    +0.000 OA
ATOM      9  H3  UNL     1     159.255 159.159 167.877  0.00  0.00    +0.000 HD
ENDROOT
BRANCH   1  14
ATOM     10 CL1  UNL     1     157.289 151.027 162.019  0.00  0.00    +0.000 Cl
ATOM     11  C1  UNL     1     157.735 152.508 162.834  0.00  0.00    +0.000 A 
ATOM     12  C2  UNL     1     158.410 152.426 164.051  0.00  0.00    +0.000 A 
ATOM     13  C3  UNL     1     158.774 153.573 164.715  0.00  0.00    +0.000 A 
ATOM     14  C4  UNL     1     158.483 154.819 164.198  0.00  0.00    +0.000 A 
ATOM     15  C14 UNL     1     157.825 154.913 163.012  0.00  0.00    +0.000 A 
ATOM     16  C15 UNL     1     157.456 153.760 162.342  0.00  0.00    +0.000 A 
ENDBRANCH   1  14
BRANCH   7  17
ATOM     17  C8  UNL     1     157.398 158.669 169.780  0.00  0.00    +0.000 A 
ATOM     18  C9  UNL     1     157.693 159.997 169.963  0.00  0.00    +0.000 A 
ATOM     19  C10 UNL     1     157.384 160.677 171.147  0.00  0.00    +0.000 A 
ATOM     20  C11 UNL     1     156.764 160.024 172.176  0.00  0.00    +0.000 A 
ATOM     21  F1  UNL     1     156.467 160.692 173.318  0.00  0.00    +0.000 F 
ATOM     22  C12 UNL     1     156.462 158.691 172.003  0.00  0.00    +0.000 A 
ATOM     23  C13 UNL     1     156.766 158.019 170.840  0.00  0.00    +0.000 A 
ENDBRANCH   7  17
TORSDOF 2
ENDMDL
