MODEL 1
REMARK VINA RESULT:      -6.8      0.000      0.000
REMARK  Name = ./3D_structures\o30_MMV1634399_3D.pdb
REMARK  6 active torsions:
REMARK  status: ('A' for Active; 'I' for Inactive)
REMARK    1  A    between atoms: O1_1  and  C1_2
REMARK    2  A    between atoms: O1_1  and  C21_24
REMARK    3  A    between atoms: N1_6  and  C13_16
REMARK    4  A    between atoms: C8_10  and  C12_15
REMARK    5  A    between atoms: C13_16  and  C14_17
REMARK    6  A    between atoms: C14_17  and  C15_18
REMARK                            x       y       z     vdW  Elec       q    Type
REMARK                         _______ _______ _______ _____ _____    ______ ____
ROOT
ATOM      1  C1  UNL     1     156.498 156.844 165.748  0.00  0.00    +0.000 A 
ATOM      2  C2  UNL     1     157.492 157.662 166.310  0.00  0.00    +0.000 A 
ATOM      3  C3  UNL     1     158.825 157.406 166.098  0.00  0.00    +0.000 A 
ATOM      4  C4  UNL     1     159.801 158.210 166.632  0.00  0.00    +0.000 A 
ATOM      5  N1  UNL     1     159.697 159.290 167.531  0.00  0.00    +0.000 N 
ATOM      6  C5  UNL     1     160.953 160.053 167.299  0.00  0.00    +0.000 C 
ATOM      7  C6  UNL     1     161.984 158.996 166.998  0.00  0.00    +0.000 C 
ATOM      8  C7  UNL     1     161.127 157.938 166.370  0.00  0.00    +0.000 A 
ATOM      9  C8  UNL     1     161.438 156.844 165.573  0.00  0.00    +0.000 A 
ATOM     10  N2  UNL     1     160.488 156.051 165.054  0.00  0.00    +0.000 NA
ATOM     11  C9  UNL     1     159.181 156.309 165.300  0.00  0.00    +0.000 A 
ATOM     12  C10 UNL     1     158.204 155.505 164.745  0.00  0.00    +0.000 A 
ATOM     13  C11 UNL     1     156.876 155.779 164.974  0.00  0.00    +0.000 A 
ATOM     14  C12 UNL     1     162.896 156.597 165.327  0.00  0.00    +0.000 C 
ENDROOT
BRANCH   1  15
ATOM     15  O1  UNL     1     155.192 157.173 166.014  0.00  0.00    +0.000 OA
BRANCH  15  16
ATOM     16  C21 UNL     1     154.859 157.932 167.124  0.00  0.00    +0.000 A 
ATOM     17  C22 UNL     1     154.880 159.303 167.130  0.00  0.00    +0.000 A 
ATOM     18  C23 UNL     1     154.541 160.046 168.257  0.00  0.00    +0.000 A 
ATOM     19  C24 UNL     1     154.182 159.354 169.371  0.00  0.00    +0.000 A 
ATOM     20  C25 UNL     1     154.147 157.968 169.410  0.00  0.00    +0.000 A 
ATOM     21  C26 UNL     1     154.488 157.250 168.277  0.00  0.00    +0.000 A 
ENDBRANCH  15  16
ENDBRANCH   1  15
BRANCH   5  22
ATOM     22  C13 UNL     1     158.750 159.722 168.480  0.00  0.00    +0.000 C 
BRANCH  22  23
ATOM     23  C14 UNL     1     158.586 158.702 169.652  0.00  0.00    +0.000 C 
BRANCH  23  24
ATOM     24  C15 UNL     1     157.658 159.160 170.681  0.00  0.00    +0.000 A 
ATOM     25  C16 UNL     1     157.460 160.549 170.776  0.00  0.00    +0.000 A 
ATOM     26  C17 UNL     1     156.607 161.036 171.742  0.00  0.00    +0.000 A 
ATOM     27  C18 UNL     1     155.935 160.210 172.627  0.00  0.00    +0.000 A 
ATOM     28  C19 UNL     1     156.139 158.853 172.520  0.00  0.00    +0.000 A 
ATOM     29  C20 UNL     1     156.987 158.343 171.561  0.00  0.00    +0.000 A 
ENDBRANCH  23  24
ENDBRANCH  22  23
ENDBRANCH   5  22
TORSDOF 5
ENDMDL
MODEL 2
REMARK VINA RESULT:      -6.4      3.749      7.925
REMARK  Name = ./3D_structures\o30_MMV1634399_3D.pdb
REMARK  6 active torsions:
REMARK  status: ('A' for Active; 'I' for Inactive)
REMARK    1  A    between atoms: O1_1  and  C1_2
REMARK    2  A    between atoms: O1_1  and  C21_24
REMARK    3  A    between atoms: N1_6  and  C13_16
REMARK    4  A    between atoms: C8_10  and  C12_15
REMARK    5  A    between atoms: C13_16  and  C14_17
REMARK    6  A    between atoms: C14_17  and  C15_18
REMARK                            x       y       z     vdW  Elec       q    Type
REMARK                         _______ _______ _______ _____ _____    ______ ____
ROOT
ATOM      1  C1  UNL     1     162.859 162.371 169.145  0.00  0.00    +0.000 A 
ATOM      2  C2  UNL     1     161.583 161.888 168.812  0.00  0.00    +0.000 A 
ATOM      3  C3  UNL     1     160.465 162.315 169.486  0.00  0.00    +0.000 A 
ATOM      4  C4  UNL     1     159.213 161.857 169.154  0.00  0.00    +0.000 A 
ATOM      5  N1  UNL     1     158.824 160.859 168.240  0.00  0.00    +0.000 N 
ATOM      6  C5  UNL     1     157.407 161.200 167.940  0.00  0.00    +0.000 C 
ATOM      7  C6  UNL     1     156.869 161.743 169.239  0.00  0.00    +0.000 C 
ATOM      8  C7  UNL     1     158.112 162.333 169.834  0.00  0.00    +0.000 A 
ATOM      9  C8  UNL     1     158.305 163.264 170.847  0.00  0.00    +0.000 A 
ATOM     10  N2  UNL     1     159.527 163.709 171.178  0.00  0.00    +0.000 NA
ATOM     11  C9  UNL     1     160.616 163.253 170.517  0.00  0.00    +0.000 A 
ATOM     12  C10 UNL     1     161.871 163.731 170.845  0.00  0.00    +0.000 A 
ATOM     13  C11 UNL     1     162.977 163.286 170.159  0.00  0.00    +0.000 A 
ATOM     14  C12 UNL     1     157.071 163.741 171.551  0.00  0.00    +0.000 C 
ENDROOT
BRANCH   1  15
ATOM     15  O1  UNL     1     163.921 161.889 168.422  0.00  0.00    +0.000 OA
BRANCH  15  16
ATOM     16  C21 UNL     1     164.679 160.827 168.888  0.00  0.00    +0.000 A 
ATOM     17  C22 UNL     1     164.618 159.567 168.349  0.00  0.00    +0.000 A 
ATOM     18  C23 UNL     1     165.389 158.515 168.833  0.00  0.00    +0.000 A 
ATOM     19  C24 UNL     1     166.219 158.783 169.876  0.00  0.00    +0.000 A 
ATOM     20  C25 UNL     1     166.314 160.042 170.451  0.00  0.00    +0.000 A 
ATOM     21  C26 UNL     1     165.537 161.073 169.953  0.00  0.00    +0.000 A 
ENDBRANCH  15  16
ENDBRANCH   1  15
BRANCH   5  22
ATOM     22  C13 UNL     1     159.445 159.746 167.640  0.00  0.00    +0.000 C 
BRANCH  22  23
ATOM     23  C14 UNL     1     159.614 158.557 168.639  0.00  0.00    +0.000 C 
BRANCH  23  24
ATOM     24  C15 UNL     1     158.372 158.207 169.322  0.00  0.00    +0.000 A 
ATOM     25  C16 UNL     1     157.422 157.492 168.573  0.00  0.00    +0.000 A 
ATOM     26  C17 UNL     1     156.225 157.152 169.164  0.00  0.00    +0.000 A 
ATOM     27  C18 UNL     1     155.920 157.486 170.472  0.00  0.00    +0.000 A 
ATOM     28  C19 UNL     1     156.861 158.186 171.193  0.00  0.00    +0.000 A 
ATOM     29  C20 UNL     1     158.065 158.537 170.622  0.00  0.00    +0.000 A 
ENDBRANCH  23  24
ENDBRANCH  22  23
ENDBRANCH   5  22
TORSDOF 5
ENDMDL
MODEL 3
REMARK VINA RESULT:      -6.4      2.430      7.384
REMARK  Name = ./3D_structures\o30_MMV1634399_3D.pdb
REMARK  6 active torsions:
REMARK  status: ('A' for Active; 'I' for Inactive)
REMARK    1  A    between atoms: O1_1  and  C1_2
REMARK    2  A    between atoms: O1_1  and  C21_24
REMARK    3  A    between atoms: N1_6  and  C13_16
REMARK    4  A    between atoms: C8_10  and  C12_15
REMARK    5  A    between atoms: C13_16  and  C14_17
REMARK    6  A    between atoms: C14_17  and  C15_18
REMARK                            x       y       z     vdW  Elec       q    Type
REMARK                         _______ _______ _______ _____ _____    ______ ____
ROOT
ATOM      1  C1  UNL     1     157.546 158.532 170.306  0.00  0.00    +0.000 A 
ATOM      2  C2  UNL     1     156.426 158.736 169.483  0.00  0.00    +0.000 A 
ATOM      3  C3  UNL     1     155.243 159.205 169.999  0.00  0.00    +0.000 A 
ATOM      4  C4  UNL     1     154.149 159.421 169.197  0.00  0.00    +0.000 A 
ATOM      5  N1  UNL     1     153.950 159.126 167.834  0.00  0.00    +0.000 N 
ATOM      6  C5  UNL     1     152.853 160.049 167.438  0.00  0.00    +0.000 C 
ATOM      7  C6  UNL     1     151.977 160.138 168.663  0.00  0.00    +0.000 C 
ATOM      8  C7  UNL     1     152.989 159.922 169.748  0.00  0.00    +0.000 A 
ATOM      9  C8  UNL     1     152.959 160.189 171.111  0.00  0.00    +0.000 A 
ATOM     10  N2  UNL     1     154.023 159.975 171.899  0.00  0.00    +0.000 NA
ATOM     11  C9  UNL     1     155.170 159.486 171.371  0.00  0.00    +0.000 A 
ATOM     12  C10 UNL     1     156.272 159.287 172.182  0.00  0.00    +0.000 A 
ATOM     13  C11 UNL     1     157.445 158.813 171.643  0.00  0.00    +0.000 A 
ATOM     14  C12 UNL     1     151.670 160.730 171.651  0.00  0.00    +0.000 C 
ENDROOT
BRANCH   1  15
ATOM     15  O1  UNL     1     158.686 158.058 169.706  0.00  0.00    +0.000 OA
BRANCH  15  16
ATOM     16  C21 UNL     1     159.242 158.708 168.616  0.00  0.00    +0.000 A 
ATOM     17  C22 UNL     1     158.788 159.916 168.150  0.00  0.00    +0.000 A 
ATOM     18  C23 UNL     1     159.362 160.551 167.053  0.00  0.00    +0.000 A 
ATOM     19  C24 UNL     1     160.405 159.923 166.449  0.00  0.00    +0.000 A 
ATOM     20  C25 UNL     1     160.898 158.702 166.887  0.00  0.00    +0.000 A 
ATOM     21  C26 UNL     1     160.311 158.089 167.980  0.00  0.00    +0.000 A 
ENDBRANCH  15  16
ENDBRANCH   1  15
BRANCH   5  22
ATOM     22  C13 UNL     1     154.521 158.237 166.903  0.00  0.00    +0.000 C 
BRANCH  22  23
ATOM     23  C14 UNL     1     155.556 158.945 165.971  0.00  0.00    +0.000 C 
BRANCH  23  24
ATOM     24  C15 UNL     1     156.666 158.077 165.589  0.00  0.00    +0.000 A 
ATOM     25  C16 UNL     1     156.847 156.912 166.355  0.00  0.00    +0.000 A 
ATOM     26  C17 UNL     1     157.890 156.068 166.048  0.00  0.00    +0.000 A 
ATOM     27  C18 UNL     1     158.772 156.321 165.011  0.00  0.00    +0.000 A 
ATOM     28  C19 UNL     1     158.582 157.466 164.271  0.00  0.00    +0.000 A 
ATOM     29  C20 UNL     1     157.544 158.325 164.560  0.00  0.00    +0.000 A 
ENDBRANCH  23  24
ENDBRANCH  22  23
ENDBRANCH   5  22
TORSDOF 5
ENDMDL
MODEL 4
REMARK VINA RESULT:      -6.3      2.976      5.607
REMARK  Name = ./3D_structures\o30_MMV1634399_3D.pdb
REMARK  6 active torsions:
REMARK  status: ('A' for Active; 'I' for Inactive)
REMARK    1  A    between atoms: O1_1  and  C1_2
REMARK    2  A    between atoms: O1_1  and  C21_24
REMARK    3  A    between atoms: N1_6  and  C13_16
REMARK    4  A    between atoms: C8_10  and  C12_15
REMARK    5  A    between atoms: C13_16  and  C14_17
REMARK    6  A    between atoms: C14_17  and  C15_18
REMARK                            x       y       z     vdW  Elec       q    Type
REMARK                         _______ _______ _______ _____ _____    ______ ____
ROOT
ATOM      1  C1  UNL     1     153.198 160.134 168.968  0.00  0.00    +0.000 A 
ATOM      2  C2  UNL     1     154.128 159.655 168.031  0.00  0.00    +0.000 A 
ATOM      3  C3  UNL     1     154.500 160.414 166.949  0.00  0.00    +0.000 A 
ATOM      4  C4  UNL     1     155.420 159.958 166.038  0.00  0.00    +0.000 A 
ATOM      5  N1  UNL     1     156.039 158.697 165.926  0.00  0.00    +0.000 N 
ATOM      6  C5  UNL     1     157.268 158.985 165.139  0.00  0.00    +0.000 C 
ATOM      7  C6  UNL     1     156.854 160.073 164.181  0.00  0.00    +0.000 C 
ATOM      8  C7  UNL     1     155.790 160.762 164.981  0.00  0.00    +0.000 A 
ATOM      9  C8  UNL     1     155.210 162.019 164.865  0.00  0.00    +0.000 A 
ATOM     10  N2  UNL     1     154.306 162.468 165.750  0.00  0.00    +0.000 NA
ATOM     11  C9  UNL     1     153.936 161.689 166.794  0.00  0.00    +0.000 A 
ATOM     12  C10 UNL     1     153.022 162.163 167.716  0.00  0.00    +0.000 A 
ATOM     13  C11 UNL     1     152.662 161.383 168.790  0.00  0.00    +0.000 A 
ATOM     14  C12 UNL     1     155.649 162.846 163.695  0.00  0.00    +0.000 C 
ENDROOT
BRANCH   1  15
ATOM     15  O1  UNL     1     152.883 159.308 170.018  0.00  0.00    +0.000 OA
BRANCH  15  16
ATOM     16  C21 UNL     1     152.950 159.760 171.327  0.00  0.00    +0.000 A 
ATOM     17  C22 UNL     1     154.115 160.175 171.919  0.00  0.00    +0.000 A 
ATOM     18  C23 UNL     1     154.159 160.625 173.236  0.00  0.00    +0.000 A 
ATOM     19  C24 UNL     1     152.988 160.639 173.925  0.00  0.00    +0.000 A 
ATOM     20  C25 UNL     1     151.786 160.229 173.365  0.00  0.00    +0.000 A 
ATOM     21  C26 UNL     1     151.766 159.785 172.055  0.00  0.00    +0.000 A 
ENDBRANCH  15  16
ENDBRANCH   1  15
BRANCH   5  22
ATOM     22  C13 UNL     1     155.747 157.390 166.363  0.00  0.00    +0.000 C 
BRANCH  22  23
ATOM     23  C14 UNL     1     156.918 156.772 167.193  0.00  0.00    +0.000 C 
BRANCH  23  24
ATOM     24  C15 UNL     1     156.983 157.288 168.557  0.00  0.00    +0.000 A 
ATOM     25  C16 UNL     1     158.079 158.111 168.868  0.00  0.00    +0.000 A 
ATOM     26  C17 UNL     1     158.198 158.609 170.146  0.00  0.00    +0.000 A 
ATOM     27  C18 UNL     1     157.277 158.331 171.142  0.00  0.00    +0.000 A 
ATOM     28  C19 UNL     1     156.210 157.523 170.822  0.00  0.00    +0.000 A 
ATOM     29  C20 UNL     1     156.070 157.014 169.549  0.00  0.00    +0.000 A 
ENDBRANCH  23  24
ENDBRANCH  22  23
ENDBRANCH   5  22
TORSDOF 5
ENDMDL
MODEL 5
REMARK VINA RESULT:      -6.3      2.911      6.832
REMARK  Name = ./3D_structures\o30_MMV1634399_3D.pdb
REMARK  6 active torsions:
REMARK  status: ('A' for Active; 'I' for Inactive)
REMARK    1  A    between atoms: O1_1  and  C1_2
REMARK    2  A    between atoms: O1_1  and  C21_24
REMARK    3  A    between atoms: N1_6  and  C13_16
REMARK    4  A    between atoms: C8_10  and  C12_15
REMARK    5  A    between atoms: C13_16  and  C14_17
REMARK    6  A    between atoms: C14_17  and  C15_18
REMARK                            x       y       z     vdW  Elec       q    Type
REMARK                         _______ _______ _______ _____ _____    ______ ____
ROOT
ATOM      1  C1  UNL     1     154.453 158.401 166.876  0.00  0.00    +0.000 A 
ATOM      2  C2  UNL     1     153.786 158.928 167.994  0.00  0.00    +0.000 A 
ATOM      3  C3  UNL     1     153.135 160.135 167.928  0.00  0.00    +0.000 A 
ATOM      4  C4  UNL     1     152.468 160.648 169.013  0.00  0.00    +0.000 A 
ATOM      5  N1  UNL     1     152.404 160.184 170.342  0.00  0.00    +0.000 N 
ATOM      6  C5  UNL     1     151.157 160.805 170.863  0.00  0.00    +0.000 C 
ATOM      7  C6  UNL     1     151.096 162.151 170.186  0.00  0.00    +0.000 C 
ATOM      8  C7  UNL     1     151.800 161.849 168.897  0.00  0.00    +0.000 A 
ATOM      9  C8  UNL     1     151.829 162.513 167.678  0.00  0.00    +0.000 A 
ATOM     10  N2  UNL     1     152.484 162.019 166.616  0.00  0.00    +0.000 NA
ATOM     11  C9  UNL     1     153.141 160.839 166.714  0.00  0.00    +0.000 A 
ATOM     12  C10 UNL     1     153.796 160.321 165.613  0.00  0.00    +0.000 A 
ATOM     13  C11 UNL     1     154.444 159.111 165.704  0.00  0.00    +0.000 A 
ATOM     14  C12 UNL     1     151.088 163.814 167.615  0.00  0.00    +0.000 C 
ENDROOT
BRANCH   1  15
ATOM     15  O1  UNL     1     155.079 157.190 167.032  0.00  0.00    +0.000 OA
BRANCH  15  16
ATOM     16  C21 UNL     1     156.359 156.980 166.545  0.00  0.00    +0.000 A 
ATOM     17  C22 UNL     1     156.631 156.164 165.477  0.00  0.00    +0.000 A 
ATOM     18  C23 UNL     1     157.926 155.967 165.004  0.00  0.00    +0.000 A 
ATOM     19  C24 UNL     1     158.927 156.623 165.648  0.00  0.00    +0.000 A 
ATOM     20  C25 UNL     1     158.698 157.458 166.732  0.00  0.00    +0.000 A 
ATOM     21  C26 UNL     1     157.403 157.638 167.185  0.00  0.00    +0.000 A 
ENDBRANCH  15  16
ENDBRANCH   1  15
BRANCH   5  22
ATOM     22  C13 UNL     1     153.196 159.353 171.157  0.00  0.00    +0.000 C 
BRANCH  22  23
ATOM     23  C14 UNL     1     154.360 160.139 171.841  0.00  0.00    +0.000 C 
BRANCH  23  24
ATOM     24  C15 UNL     1     155.658 159.892 171.219  0.00  0.00    +0.000 A 
ATOM     25  C16 UNL     1     156.380 158.781 171.690  0.00  0.00    +0.000 A 
ATOM     26  C17 UNL     1     157.618 158.513 171.149  0.00  0.00    +0.000 A 
ATOM     27  C18 UNL     1     158.182 159.296 170.157  0.00  0.00    +0.000 A 
ATOM     28  C19 UNL     1     157.463 160.379 169.707  0.00  0.00    +0.000 A 
ATOM     29  C20 UNL     1     156.222 160.667 170.233  0.00  0.00    +0.000 A 
ENDBRANCH  23  24
ENDBRANCH  22  23
ENDBRANCH   5  22
TORSDOF 5
ENDMDL
MODEL 6
REMARK VINA RESULT:      -6.2      3.423      7.831
REMARK  Name = ./3D_structures\o30_MMV1634399_3D.pdb
REMARK  6 active torsions:
REMARK  status: ('A' for Active; 'I' for Inactive)
REMARK    1  A    between atoms: O1_1  and  C1_2
REMARK    2  A    between atoms: O1_1  and  C21_24
REMARK    3  A    between atoms: N1_6  and  C13_16
REMARK    4  A    between atoms: C8_10  and  C12_15
REMARK    5  A    between atoms: C13_16  and  C14_17
REMARK    6  A    between atoms: C14_17  and  C15_18
REMARK                            x       y       z     vdW  Elec       q    Type
REMARK                         _______ _______ _______ _____ _____    ______ ____
ROOT
ATOM      1  C1  UNL     1     153.274 157.975 169.542  0.00  0.00    +0.000 A 
ATOM      2  C2  UNL     1     153.364 159.246 168.949  0.00  0.00    +0.000 A 
ATOM      3  C3  UNL     1     152.283 160.091 168.916  0.00  0.00    +0.000 A 
ATOM      4  C4  UNL     1     152.369 161.340 168.352  0.00  0.00    +0.000 A 
ATOM      5  N1  UNL     1     153.422 161.942 167.635  0.00  0.00    +0.000 N 
ATOM      6  C5  UNL     1     153.144 163.397 167.771  0.00  0.00    +0.000 C 
ATOM      7  C6  UNL     1     151.639 163.493 167.762  0.00  0.00    +0.000 C 
ATOM      8  C7  UNL     1     151.269 162.171 168.366  0.00  0.00    +0.000 A 
ATOM      9  C8  UNL     1     150.095 161.714 168.949  0.00  0.00    +0.000 A 
ATOM     10  N2  UNL     1     150.004 160.492 169.497  0.00  0.00    +0.000 NA
ATOM     11  C9  UNL     1     151.077 159.667 169.493  0.00  0.00    +0.000 A 
ATOM     12  C10 UNL     1     150.987 158.418 170.078  0.00  0.00    +0.000 A 
ATOM     13  C11 UNL     1     152.083 157.587 170.096  0.00  0.00    +0.000 A 
ATOM     14  C12 UNL     1     148.934 162.661 168.931  0.00  0.00    +0.000 C 
ENDROOT
BRANCH   1  15
ATOM     15  O1  UNL     1     154.403 157.196 169.529  0.00  0.00    +0.000 OA
BRANCH  15  16
ATOM     16  C21 UNL     1     155.629 157.707 169.924  0.00  0.00    +0.000 A 
ATOM     17  C22 UNL     1     156.742 157.692 169.123  0.00  0.00    +0.000 A 
ATOM     18  C23 UNL     1     157.964 158.212 169.542  0.00  0.00    +0.000 A 
ATOM     19  C24 UNL     1     158.016 158.744 170.791  0.00  0.00    +0.000 A 
ATOM     20  C25 UNL     1     156.915 158.781 171.634  0.00  0.00    +0.000 A 
ATOM     21  C26 UNL     1     155.710 158.258 171.198  0.00  0.00    +0.000 A 
ENDBRANCH  15  16
ENDBRANCH   1  15
BRANCH   5  22
ATOM     22  C13 UNL     1     154.539 161.482 166.911  0.00  0.00    +0.000 C 
BRANCH  22  23
ATOM     23  C14 UNL     1     154.135 160.477 165.785  0.00  0.00    +0.000 C 
BRANCH  23  24
ATOM     24  C15 UNL     1     155.138 159.439 165.561  0.00  0.00    +0.000 A 
ATOM     25  C16 UNL     1     154.802 158.139 165.976  0.00  0.00    +0.000 A 
ATOM     26  C17 UNL     1     155.719 157.126 165.804  0.00  0.00    +0.000 A 
ATOM     27  C18 UNL     1     156.964 157.338 165.238  0.00  0.00    +0.000 A 
ATOM     28  C19 UNL     1     157.279 158.617 164.837  0.00  0.00    +0.000 A 
ATOM     29  C20 UNL     1     156.376 159.646 164.998  0.00  0.00    +0.000 A 
ENDBRANCH  23  24
ENDBRANCH  22  23
ENDBRANCH   5  22
TORSDOF 5
ENDMDL
MODEL 7
REMARK VINA RESULT:      -6.2      3.467      7.864
REMARK  Name = ./3D_structures\o30_MMV1634399_3D.pdb
REMARK  6 active torsions:
REMARK  status: ('A' for Active; 'I' for Inactive)
REMARK    1  A    between atoms: O1_1  and  C1_2
REMARK    2  A    between atoms: O1_1  and  C21_24
REMARK    3  A    between atoms: N1_6  and  C13_16
REMARK    4  A    between atoms: C8_10  and  C12_15
REMARK    5  A    between atoms: C13_16  and  C14_17
REMARK    6  A    between atoms: C14_17  and  C15_18
REMARK                            x       y       z     vdW  Elec       q    Type
REMARK                         _______ _______ _______ _____ _____    ______ ____
ROOT
ATOM      1  C1  UNL     1     154.266 160.701 171.259  0.00  0.00    +0.000 A 
ATOM      2  C2  UNL     1     153.941 160.974 169.920  0.00  0.00    +0.000 A 
ATOM      3  C3  UNL     1     152.654 160.838 169.460  0.00  0.00    +0.000 A 
ATOM      4  C4  UNL     1     152.328 161.118 168.156  0.00  0.00    +0.000 A 
ATOM      5  N1  UNL     1     153.155 161.448 167.063  0.00  0.00    +0.000 N 
ATOM      6  C5  UNL     1     152.230 162.141 166.128  0.00  0.00    +0.000 C 
ATOM      7  C6  UNL     1     150.912 161.431 166.308  0.00  0.00    +0.000 C 
ATOM      8  C7  UNL     1     151.019 160.999 167.740  0.00  0.00    +0.000 A 
ATOM      9  C8  UNL     1     150.063 160.588 168.659  0.00  0.00    +0.000 A 
ATOM     10  N2  UNL     1     150.377 160.308 169.933  0.00  0.00    +0.000 NA
ATOM     11  C9  UNL     1     151.658 160.424 170.356  0.00  0.00    +0.000 A 
ATOM     12  C10 UNL     1     151.975 160.156 171.674  0.00  0.00    +0.000 A 
ATOM     13  C11 UNL     1     153.272 160.296 172.111  0.00  0.00    +0.000 A 
ATOM     14  C12 UNL     1     148.658 160.475 168.148  0.00  0.00    +0.000 C 
ENDROOT
BRANCH   1  15
ATOM     15  O1  UNL     1     155.576 160.861 171.632  0.00  0.00    +0.000 OA
BRANCH  15  16
ATOM     16  C21 UNL     1     156.600 160.254 170.921  0.00  0.00    +0.000 A 
ATOM     17  C22 UNL     1     157.230 160.848 169.858  0.00  0.00    +0.000 A 
ATOM     18  C23 UNL     1     158.257 160.219 169.158  0.00  0.00    +0.000 A 
ATOM     19  C24 UNL     1     158.619 158.977 169.573  0.00  0.00    +0.000 A 
ATOM     20  C25 UNL     1     158.009 158.338 170.643  0.00  0.00    +0.000 A 
ATOM     21  C26 UNL     1     156.991 158.982 171.324  0.00  0.00    +0.000 A 
ENDBRANCH  15  16
ENDBRANCH   1  15
BRANCH   5  22
ATOM     22  C13 UNL     1     154.513 161.265 166.738  0.00  0.00    +0.000 C 
BRANCH  22  23
ATOM     23  C14 UNL     1     154.725 160.081 165.741  0.00  0.00    +0.000 C 
BRANCH  23  24
ATOM     24  C15 UNL     1     155.414 158.945 166.344  0.00  0.00    +0.000 A 
ATOM     25  C16 UNL     1     154.809 158.370 167.475  0.00  0.00    +0.000 A 
ATOM     26  C17 UNL     1     155.427 157.306 168.093  0.00  0.00    +0.000 A 
ATOM     27  C18 UNL     1     156.626 156.777 167.644  0.00  0.00    +0.000 A 
ATOM     28  C19 UNL     1     157.205 157.351 166.536  0.00  0.00    +0.000 A 
ATOM     29  C20 UNL     1     156.604 158.417 165.900  0.00  0.00    +0.000 A 
ENDBRANCH  23  24
ENDBRANCH  22  23
ENDBRANCH   5  22
TORSDOF 5
ENDMDL
MODEL 8
REMARK VINA RESULT:      -6.2      6.901     10.904
REMARK  Name = ./3D_structures\o30_MMV1634399_3D.pdb
REMARK  6 active torsions:
REMARK  status: ('A' for Active; 'I' for Inactive)
REMARK    1  A    between atoms: O1_1  and  C1_2
REMARK    2  A    between atoms: O1_1  and  C21_24
REMARK    3  A    between atoms: N1_6  and  C13_16
REMARK    4  A    between atoms: C8_10  and  C12_15
REMARK    5  A    between atoms: C13_16  and  C14_17
REMARK    6  A    between atoms: C14_17  and  C15_18
REMARK                            x       y       z     vdW  Elec       q    Type
REMARK                         _______ _______ _______ _____ _____    ______ ____
ROOT
ATOM      1  C1  UNL     1     150.567 161.261 168.343  0.00  0.00    +0.000 A 
ATOM      2  C2  UNL     1     150.189 162.531 167.877  0.00  0.00    +0.000 A 
ATOM      3  C3  UNL     1     148.897 162.787 167.488  0.00  0.00    +0.000 A 
ATOM      4  C4  UNL     1     148.518 164.031 167.046  0.00  0.00    +0.000 A 
ATOM      5  N1  UNL     1     149.293 165.178 166.786  0.00  0.00    +0.000 N 
ATOM      6  C5  UNL     1     148.306 166.287 166.871  0.00  0.00    +0.000 C 
ATOM      7  C6  UNL     1     147.031 165.699 166.321  0.00  0.00    +0.000 C 
ATOM      8  C7  UNL     1     147.204 164.257 166.694  0.00  0.00    +0.000 A 
ATOM      9  C8  UNL     1     146.297 163.209 166.793  0.00  0.00    +0.000 A 
ATOM     10  N2  UNL     1     146.664 161.991 167.219  0.00  0.00    +0.000 NA
ATOM     11  C9  UNL     1     147.951 161.756 167.571  0.00  0.00    +0.000 A 
ATOM     12  C10 UNL     1     148.321 160.506 168.031  0.00  0.00    +0.000 A 
ATOM     13  C11 UNL     1     149.622 160.272 168.411  0.00  0.00    +0.000 A 
ATOM     14  C12 UNL     1     144.885 163.516 166.394  0.00  0.00    +0.000 C 
ENDROOT
BRANCH   1  15
ATOM     15  O1  UNL     1     151.880 161.092 168.708  0.00  0.00    +0.000 OA
BRANCH  15  16
ATOM     16  C21 UNL     1     152.718 160.254 167.990  0.00  0.00    +0.000 A 
ATOM     17  C22 UNL     1     153.269 159.114 168.516  0.00  0.00    +0.000 A 
ATOM     18  C23 UNL     1     154.109 158.286 167.776  0.00  0.00    +0.000 A 
ATOM     19  C24 UNL     1     154.368 158.654 166.493  0.00  0.00    +0.000 A 
ATOM     20  C25 UNL     1     153.832 159.798 165.920  0.00  0.00    +0.000 A 
ATOM     21  C26 UNL     1     153.000 160.606 166.675  0.00  0.00    +0.000 A 
ENDBRANCH  15  16
ENDBRANCH   1  15
BRANCH   5  22
ATOM     22  C13 UNL     1     150.648 165.433 166.497  0.00  0.00    +0.000 C 
BRANCH  22  23
ATOM     23  C14 UNL     1     150.896 165.633 164.968  0.00  0.00    +0.000 C 
BRANCH  23  24
ATOM     24  C15 UNL     1     152.143 165.030 164.509  0.00  0.00    +0.000 A 
ATOM     25  C16 UNL     1     152.072 163.698 164.063  0.00  0.00    +0.000 A 
ATOM     26  C17 UNL     1     153.224 163.076 163.636  0.00  0.00    +0.000 A 
ATOM     27  C18 UNL     1     154.454 163.710 163.628  0.00  0.00    +0.000 A 
ATOM     28  C19 UNL     1     154.507 165.014 164.067  0.00  0.00    +0.000 A 
ATOM     29  C20 UNL     1     153.368 165.657 164.499  0.00  0.00    +0.000 A 
ENDBRANCH  23  24
ENDBRANCH  22  23
ENDBRANCH   5  22
TORSDOF 5
ENDMDL
MODEL 9
REMARK VINA RESULT:      -6.2      2.867      6.784
REMARK  Name = ./3D_structures\o30_MMV1634399_3D.pdb
REMARK  6 active torsions:
REMARK  status: ('A' for Active; 'I' for Inactive)
REMARK    1  A    between atoms: O1_1  and  C1_2
REMARK    2  A    between atoms: O1_1  and  C21_24
REMARK    3  A    between atoms: N1_6  and  C13_16
REMARK    4  A    between atoms: C8_10  and  C12_15
REMARK    5  A    between atoms: C13_16  and  C14_17
REMARK    6  A    between atoms: C14_17  and  C15_18
REMARK                            x       y       z     vdW  Elec       q    Type
REMARK                         _______ _______ _______ _____ _____    ______ ____
ROOT
ATOM      1  C1  UNL     1     154.770 160.226 165.423  0.00  0.00    +0.000 A 
ATOM      2  C2  UNL     1     154.279 159.566 166.562  0.00  0.00    +0.000 A 
ATOM      3  C3  UNL     1     153.322 160.145 167.359  0.00  0.00    +0.000 A 
ATOM      4  C4  UNL     1     152.828 159.498 168.465  0.00  0.00    +0.000 A 
ATOM      5  N1  UNL     1     153.224 158.285 169.061  0.00  0.00    +0.000 N 
ATOM      6  C5  UNL     1     152.022 157.871 169.833  0.00  0.00    +0.000 C 
ATOM      7  C6  UNL     1     151.424 159.167 170.320  0.00  0.00    +0.000 C 
ATOM      8  C7  UNL     1     151.845 160.100 169.223  0.00  0.00    +0.000 A 
ATOM      9  C8  UNL     1     151.387 161.355 168.846  0.00  0.00    +0.000 A 
ATOM     10  N2  UNL     1     151.871 161.994 167.770  0.00  0.00    +0.000 NA
ATOM     11  C9  UNL     1     152.834 161.413 167.014  0.00  0.00    +0.000 A 
ATOM     12  C10 UNL     1     153.314 162.063 165.893  0.00  0.00    +0.000 A 
ATOM     13  C11 UNL     1     154.275 161.465 165.111  0.00  0.00    +0.000 A 
ATOM     14  C12 UNL     1     150.321 161.959 169.710  0.00  0.00    +0.000 C 
ENDROOT
BRANCH   1  15
ATOM     15  O1  UNL     1     155.726 159.575 164.685  0.00  0.00    +0.000 OA
BRANCH  15  16
ATOM     16  C21 UNL     1     156.588 158.666 165.276  0.00  0.00    +0.000 A 
ATOM     17  C22 UNL     1     157.931 158.897 165.434  0.00  0.00    +0.000 A 
ATOM     18  C23 UNL     1     158.778 157.968 166.032  0.00  0.00    +0.000 A 
ATOM     19  C24 UNL     1     158.220 156.806 166.461  0.00  0.00    +0.000 A 
ATOM     20  C25 UNL     1     156.867 156.531 166.323  0.00  0.00    +0.000 A 
ATOM     21  C26 UNL     1     156.043 157.468 165.725  0.00  0.00    +0.000 A 
ENDBRANCH  15  16
ENDBRANCH   1  15
BRANCH   5  22
ATOM     22  C13 UNL     1     154.392 157.497 169.060  0.00  0.00    +0.000 C 
BRANCH  22  23
ATOM     23  C14 UNL     1     155.358 157.878 170.227  0.00  0.00    +0.000 C 
BRANCH  23  24
ATOM     24  C15 UNL     1     156.533 158.617 169.776  0.00  0.00    +0.000 A 
ATOM     25  C16 UNL     1     157.782 158.009 169.993  0.00  0.00    +0.000 A 
ATOM     26  C17 UNL     1     158.924 158.672 169.602  0.00  0.00    +0.000 A 
ATOM     27  C18 UNL     1     158.892 159.919 169.002  0.00  0.00    +0.000 A 
ATOM     28  C19 UNL     1     157.662 160.501 168.796  0.00  0.00    +0.000 A 
ATOM     29  C20 UNL     1     156.506 159.856 169.178  0.00  0.00    +0.000 A 
ENDBRANCH  23  24
ENDBRANCH  22  23
ENDBRANCH   5  22
TORSDOF 5
ENDMDL
