MODEL 1
REMARK VINA RESULT:      -7.2      0.000      0.000
REMARK  Name = ./3D_structures\o33_MMV831201_3D.pdb
REMARK  9 active torsions:
REMARK  status: ('A' for Active; 'I' for Inactive)
REMARK    1  A    between atoms: C1_2  and  C2_4
REMARK    2  A    between atoms: C4_8  and  C5_9
REMARK    3  A    between atoms: N3_10  and  C6_11
REMARK    4  A    between atoms: C6_11  and  C7_12
REMARK    5  A    between atoms: C12_17  and  O1_18
REMARK    6  A    between atoms: O1_18  and  C13_19
REMARK    7  A    between atoms: C15_23  and  C16_24
REMARK    8  A    between atoms: C21_29  and  C22_30
REMARK    9  A    between atoms: C22_30  and  C23_31
REMARK                            x       y       z     vdW  Elec       q    Type
REMARK                         _______ _______ _______ _____ _____    ______ ____
ROOT
ATOM      1  C2  UNL     1     151.890 159.714 169.940  0.00  0.00    +0.000 C 
ATOM      2  N1  UNL     1     151.100 158.645 170.440  0.00  0.00    +0.000 N 
ATOM      3  N2  UNL     1     149.940 158.714 171.112  0.00  0.00    +0.000 NA
ATOM      4  C3  UNL     1     149.511 157.499 171.413  0.00  0.00    +0.000 A 
ATOM      5  C4  UNL     1     150.407 156.595 170.929  0.00  0.00    +0.000 A 
ATOM      6  C14 UNL     1     151.413 157.365 170.310  0.00  0.00    +0.000 A 
ATOM      7  N4  UNL     1     152.601 156.989 169.632  0.00  0.00    +0.000 N 
ATOM      8  C15 UNL     1     153.677 157.964 169.583  0.00  0.00    +0.000 C 
ATOM      9  C24 UNL     1     153.133 159.307 169.257  0.00  0.00    +0.000 C 
ATOM     10  H13 UNL     1     152.652 156.049 169.207  0.00  0.00    +0.000 HD
ENDROOT
BRANCH   8  11
ATOM     11  C16 UNL     1     154.750 157.567 168.659  0.00  0.00    +0.000 A 
ATOM     12  C17 UNL     1     154.627 157.696 167.282  0.00  0.00    +0.000 A 
ATOM     13  C18 UNL     1     155.633 157.324 166.412  0.00  0.00    +0.000 A 
ATOM     14  C19 UNL     1     155.931 157.047 169.134  0.00  0.00    +0.000 A 
ATOM     15  C20 UNL     1     156.960 156.665 168.269  0.00  0.00    +0.000 A 
ATOM     16  C21 UNL     1     156.820 156.800 166.913  0.00  0.00    +0.000 A 
BRANCH  16  17
ATOM     17  C22 UNL     1     157.863 156.420 165.948  0.00  0.00    +0.000 C 
ATOM     18  C23 UNL     1     159.139 157.196 166.095  0.00  0.00    +0.000 C 
ENDBRANCH  16  17
ENDBRANCH   8  11
BRANCH   1  20
ATOM     19  F1  UNL     1     153.410 161.350 170.596  0.00  0.00    +0.000 F 
ATOM     20  C1  UNL     1     152.280 160.677 171.071  0.00  0.00    +0.000 C 
ATOM     21  F2  UNL     1     152.617 160.005 172.214  0.00  0.00    +0.000 F 
ATOM     22  F3  UNL     1     151.316 161.633 171.260  0.00  0.00    +0.000 F 
ENDBRANCH   1  20
BRANCH   5  23
ATOM     23  C5  UNL     1     150.417 155.145 170.988  0.00  0.00    +0.000 C 
ATOM     24  N3  UNL     1     149.663 154.323 170.125  0.00  0.00    +0.000 N 
ATOM     25  O2  UNL     1     151.127 154.562 171.844  0.00  0.00    +0.000 OA
ATOM     26  H3  UNL     1     149.070 154.793 169.409  0.00  0.00    +0.000 HD
BRANCH  24  27
ATOM     27  C6  UNL     1     149.732 152.856 170.259  0.00  0.00    +0.000 C 
BRANCH  27  28
ATOM     28  C7  UNL     1     149.014 152.211 169.131  0.00  0.00    +0.000 A 
ATOM     29  C8  UNL     1     149.616 151.961 167.916  0.00  0.00    +0.000 A 
ATOM     30  C9  UNL     1     148.936 151.366 166.878  0.00  0.00    +0.000 A 
ATOM     31  C10 UNL     1     147.694 151.850 169.292  0.00  0.00    +0.000 A 
ATOM     32  C11 UNL     1     147.009 151.249 168.240  0.00  0.00    +0.000 A 
ATOM     33  C12 UNL     1     147.598 150.993 167.020  0.00  0.00    +0.000 A 
BRANCH  33  34
ATOM     34  O1  UNL     1     146.945 150.397 165.950  0.00  0.00    +0.000 OA
ATOM     35  C13 UNL     1     146.597 151.249 164.855  0.00  0.00    +0.000 C 
ENDBRANCH  33  34
ENDBRANCH  27  28
ENDBRANCH  24  27
ENDBRANCH   5  23
TORSDOF 7
ENDMDL
MODEL 2
REMARK VINA RESULT:      -7.2      5.702      7.863
REMARK  Name = ./3D_structures\o33_MMV831201_3D.pdb
REMARK  9 active torsions:
REMARK  status: ('A' for Active; 'I' for Inactive)
REMARK    1  A    between atoms: C1_2  and  C2_4
REMARK    2  A    between atoms: C4_8  and  C5_9
REMARK    3  A    between atoms: N3_10  and  C6_11
REMARK    4  A    between atoms: C6_11  and  C7_12
REMARK    5  A    between atoms: C12_17  and  O1_18
REMARK    6  A    between atoms: O1_18  and  C13_19
REMARK    7  A    between atoms: C15_23  and  C16_24
REMARK    8  A    between atoms: C21_29  and  C22_30
REMARK    9  A    between atoms: C22_30  and  C23_31
REMARK                            x       y       z     vdW  Elec       q    Type
REMARK                         _______ _______ _______ _____ _____    ______ ____
ROOT
ATOM      1  C2  UNL     1     155.290 160.829 171.698  0.00  0.00    +0.000 C 
ATOM      2  N1  UNL     1     153.947 161.278 171.584  0.00  0.00    +0.000 N 
ATOM      3  N2  UNL     1     153.282 162.122 172.389  0.00  0.00    +0.000 NA
ATOM      4  C3  UNL     1     152.044 162.291 171.954  0.00  0.00    +0.000 A 
ATOM      5  C4  UNL     1     151.877 161.542 170.828  0.00  0.00    +0.000 A 
ATOM      6  C14 UNL     1     153.118 160.905 170.620  0.00  0.00    +0.000 A 
ATOM      7  N4  UNL     1     153.556 160.007 169.613  0.00  0.00    +0.000 N 
ATOM      8  C15 UNL     1     154.661 159.124 169.944  0.00  0.00    +0.000 C 
ATOM      9  C24 UNL     1     155.722 159.879 170.656  0.00  0.00    +0.000 C 
ATOM     10  H13 UNL     1     153.078 160.019 168.697  0.00  0.00    +0.000 HD
ENDROOT
BRANCH   8  11
ATOM     11  C16 UNL     1     155.185 158.418 168.765  0.00  0.00    +0.000 A 
ATOM     12  C17 UNL     1     154.490 158.366 167.563  0.00  0.00    +0.000 A 
ATOM     13  C18 UNL     1     154.980 157.704 166.454  0.00  0.00    +0.000 A 
ATOM     14  C19 UNL     1     156.400 157.775 168.812  0.00  0.00    +0.000 A 
ATOM     15  C20 UNL     1     156.911 157.100 167.700  0.00  0.00    +0.000 A 
ATOM     16  C21 UNL     1     156.211 157.060 166.523  0.00  0.00    +0.000 A 
BRANCH  16  17
ATOM     17  C22 UNL     1     156.692 156.370 165.316  0.00  0.00    +0.000 C 
ATOM     18  C23 UNL     1     157.943 155.570 165.531  0.00  0.00    +0.000 C 
ENDBRANCH  16  17
ENDBRANCH   8  11
BRANCH   1  20
ATOM     19  F1  UNL     1     156.249 158.999 172.768  0.00  0.00    +0.000 F 
ATOM     20  C1  UNL     1     155.524 160.159 173.059  0.00  0.00    +0.000 C 
ATOM     21  F2  UNL     1     154.347 159.802 173.658  0.00  0.00    +0.000 F 
ATOM     22  F3  UNL     1     156.335 160.927 173.855  0.00  0.00    +0.000 F 
ENDBRANCH   1  20
BRANCH   5  23
ATOM     23  C5  UNL     1     150.722 161.367 169.968  0.00  0.00    +0.000 C 
ATOM     24  N3  UNL     1     150.099 162.423 169.272  0.00  0.00    +0.000 N 
ATOM     25  O2  UNL     1     150.227 160.222 169.816  0.00  0.00    +0.000 OA
ATOM     26  H3  UNL     1     150.499 163.378 169.388  0.00  0.00    +0.000 HD
BRANCH  24  27
ATOM     27  C6  UNL     1     148.926 162.153 168.420  0.00  0.00    +0.000 C 
BRANCH  27  28
ATOM     28  C7  UNL     1     148.480 163.406 167.762  0.00  0.00    +0.000 A 
ATOM     29  C8  UNL     1     147.154 163.778 167.698  0.00  0.00    +0.000 A 
ATOM     30  C9  UNL     1     146.755 164.941 167.080  0.00  0.00    +0.000 A 
ATOM     31  C10 UNL     1     149.418 164.234 167.183  0.00  0.00    +0.000 A 
ATOM     32  C11 UNL     1     149.012 165.409 166.558  0.00  0.00    +0.000 A 
ATOM     33  C12 UNL     1     147.689 165.793 166.487  0.00  0.00    +0.000 A 
BRANCH  33  34
ATOM     34  O1  UNL     1     147.249 166.956 165.871  0.00  0.00    +0.000 OA
ATOM     35  C13 UNL     1     145.839 167.072 165.650  0.00  0.00    +0.000 C 
ENDBRANCH  33  34
ENDBRANCH  27  28
ENDBRANCH  24  27
ENDBRANCH   5  23
TORSDOF 7
ENDMDL
MODEL 3
REMARK VINA RESULT:      -7.2      2.875      3.714
REMARK  Name = ./3D_structures\o33_MMV831201_3D.pdb
REMARK  9 active torsions:
REMARK  status: ('A' for Active; 'I' for Inactive)
REMARK    1  A    between atoms: C1_2  and  C2_4
REMARK    2  A    between atoms: C4_8  and  C5_9
REMARK    3  A    between atoms: N3_10  and  C6_11
REMARK    4  A    between atoms: C6_11  and  C7_12
REMARK    5  A    between atoms: C12_17  and  O1_18
REMARK    6  A    between atoms: O1_18  and  C13_19
REMARK    7  A    between atoms: C15_23  and  C16_24
REMARK    8  A    between atoms: C21_29  and  C22_30
REMARK    9  A    between atoms: C22_30  and  C23_31
REMARK                            x       y       z     vdW  Elec       q    Type
REMARK                         _______ _______ _______ _____ _____    ______ ____
ROOT
ATOM      1  C2  UNL     1     155.333 160.147 171.410  0.00  0.00    +0.000 C 
ATOM      2  N1  UNL     1     153.927 160.051 171.583  0.00  0.00    +0.000 N 
ATOM      3  N2  UNL     1     153.166 160.621 172.531  0.00  0.00    +0.000 NA
ATOM      4  C3  UNL     1     151.897 160.290 172.361  0.00  0.00    +0.000 A 
ATOM      5  C4  UNL     1     151.806 159.478 171.271  0.00  0.00    +0.000 A 
ATOM      6  C14 UNL     1     153.127 159.346 170.797  0.00  0.00    +0.000 A 
ATOM      7  N4  UNL     1     153.664 158.630 169.696  0.00  0.00    +0.000 N 
ATOM      8  C15 UNL     1     155.062 158.245 169.770  0.00  0.00    +0.000 C 
ATOM      9  C24 UNL     1     155.878 159.379 170.274  0.00  0.00    +0.000 C 
ATOM     10  H13 UNL     1     153.045 158.415 168.897  0.00  0.00    +0.000 HD
ENDROOT
BRANCH   8  11
ATOM     11  C16 UNL     1     155.569 157.730 168.489  0.00  0.00    +0.000 A 
ATOM     12  C17 UNL     1     154.869 157.884 167.300  0.00  0.00    +0.000 A 
ATOM     13  C18 UNL     1     155.342 157.402 166.095  0.00  0.00    +0.000 A 
ATOM     14  C19 UNL     1     156.774 157.069 168.423  0.00  0.00    +0.000 A 
ATOM     15  C20 UNL     1     157.269 156.575 167.213  0.00  0.00    +0.000 A 
ATOM     16  C21 UNL     1     156.563 156.736 166.051  0.00  0.00    +0.000 A 
BRANCH  16  17
ATOM     17  C22 UNL     1     157.027 156.243 164.744  0.00  0.00    +0.000 C 
ATOM     18  C23 UNL     1     158.070 155.168 164.836  0.00  0.00    +0.000 C 
ENDBRANCH  16  17
ENDBRANCH   8  11
BRANCH   1  20
ATOM     19  F1  UNL     1     156.802 160.798 173.094  0.00  0.00    +0.000 F 
ATOM     20  C1  UNL     1     156.070 159.683 172.675  0.00  0.00    +0.000 C 
ATOM     21  F2  UNL     1     156.940 158.661 172.408  0.00  0.00    +0.000 F 
ATOM     22  F3  UNL     1     155.186 159.403 173.685  0.00  0.00    +0.000 F 
ENDBRANCH   1  20
BRANCH   5  23
ATOM     23  C5  UNL     1     150.657 158.839 170.658  0.00  0.00    +0.000 C 
ATOM     24  N3  UNL     1     149.797 157.955 171.343  0.00  0.00    +0.000 N 
ATOM     25  O2  UNL     1     150.389 159.065 169.452  0.00  0.00    +0.000 OA
ATOM     26  H3  UNL     1     150.008 157.758 172.344  0.00  0.00    +0.000 HD
BRANCH  24  27
ATOM     27  C6  UNL     1     148.653 157.348 170.638  0.00  0.00    +0.000 C 
BRANCH  27  28
ATOM     28  C7  UNL     1     148.676 155.874 170.812  0.00  0.00    +0.000 A 
ATOM     29  C8  UNL     1     149.849 155.163 170.948  0.00  0.00    +0.000 A 
ATOM     30  C9  UNL     1     149.855 153.796 171.104  0.00  0.00    +0.000 A 
ATOM     31  C10 UNL     1     147.486 155.179 170.834  0.00  0.00    +0.000 A 
ATOM     32  C11 UNL     1     147.496 153.797 170.990  0.00  0.00    +0.000 A 
ATOM     33  C12 UNL     1     148.662 153.073 171.128  0.00  0.00    +0.000 A 
BRANCH  33  34
ATOM     34  O1  UNL     1     148.708 151.695 171.285  0.00  0.00    +0.000 OA
ATOM     35  C13 UNL     1     147.596 151.087 171.950  0.00  0.00    +0.000 C 
ENDBRANCH  33  34
ENDBRANCH  27  28
ENDBRANCH  24  27
ENDBRANCH   5  23
TORSDOF 7
ENDMDL
MODEL 4
REMARK VINA RESULT:      -7.1      5.331      9.085
REMARK  Name = ./3D_structures\o33_MMV831201_3D.pdb
REMARK  9 active torsions:
REMARK  status: ('A' for Active; 'I' for Inactive)
REMARK    1  A    between atoms: C1_2  and  C2_4
REMARK    2  A    between atoms: C4_8  and  C5_9
REMARK    3  A    between atoms: N3_10  and  C6_11
REMARK    4  A    between atoms: C6_11  and  C7_12
REMARK    5  A    between atoms: C12_17  and  O1_18
REMARK    6  A    between atoms: O1_18  and  C13_19
REMARK    7  A    between atoms: C15_23  and  C16_24
REMARK    8  A    between atoms: C21_29  and  C22_30
REMARK    9  A    between atoms: C22_30  and  C23_31
REMARK                            x       y       z     vdW  Elec       q    Type
REMARK                         _______ _______ _______ _____ _____    ______ ____
ROOT
ATOM      1  C2  UNL     1     148.352 164.118 168.157  0.00  0.00    +0.000 C 
ATOM      2  N1  UNL     1     149.284 164.456 167.140  0.00  0.00    +0.000 N 
ATOM      3  N2  UNL     1     149.403 165.615 166.473  0.00  0.00    +0.000 NA
ATOM      4  C3  UNL     1     150.391 165.542 165.596  0.00  0.00    +0.000 A 
ATOM      5  C4  UNL     1     150.948 164.301 165.679  0.00  0.00    +0.000 A 
ATOM      6  C14 UNL     1     150.214 163.632 166.680  0.00  0.00    +0.000 A 
ATOM      7  N4  UNL     1     150.327 162.321 167.210  0.00  0.00    +0.000 N 
ATOM      8  C15 UNL     1     149.139 161.742 167.814  0.00  0.00    +0.000 C 
ATOM      9  C24 UNL     1     148.469 162.744 168.681  0.00  0.00    +0.000 C 
ATOM     10  H13 UNL     1     151.238 161.837 167.145  0.00  0.00    +0.000 HD
ENDROOT
BRANCH   8  11
ATOM     11  C16 UNL     1     149.430 160.496 168.538  0.00  0.00    +0.000 A 
ATOM     12  C17 UNL     1     150.621 160.301 169.227  0.00  0.00    +0.000 A 
ATOM     13  C18 UNL     1     150.898 159.131 169.908  0.00  0.00    +0.000 A 
ATOM     14  C19 UNL     1     148.520 159.465 168.560  0.00  0.00    +0.000 A 
ATOM     15  C20 UNL     1     148.782 158.276 169.245  0.00  0.00    +0.000 A 
ATOM     16  C21 UNL     1     149.962 158.101 169.917  0.00  0.00    +0.000 A 
BRANCH  16  17
ATOM     17  C22 UNL     1     150.301 156.876 170.658  0.00  0.00    +0.000 C 
ATOM     18  C23 UNL     1     149.152 155.924 170.816  0.00  0.00    +0.000 C 
ENDBRANCH  16  17
ENDBRANCH   8  11
BRANCH   1  20
ATOM     19  F1  UNL     1     146.137 163.485 168.486  0.00  0.00    +0.000 F 
ATOM     20  C1  UNL     1     146.912 164.299 167.655  0.00  0.00    +0.000 C 
ATOM     21  F2  UNL     1     146.768 163.872 166.363  0.00  0.00    +0.000 F 
ATOM     22  F3  UNL     1     146.475 165.582 167.861  0.00  0.00    +0.000 F 
ENDBRANCH   1  20
BRANCH   5  23
ATOM     23  C5  UNL     1     152.049 163.705 164.946  0.00  0.00    +0.000 C 
ATOM     24  N3  UNL     1     153.210 163.192 165.560  0.00  0.00    +0.000 N 
ATOM     25  O2  UNL     1     151.992 163.628 163.693  0.00  0.00    +0.000 OA
ATOM     26  H3  UNL     1     153.270 163.249 166.598  0.00  0.00    +0.000 HD
BRANCH  24  27
ATOM     27  C6  UNL     1     154.281 162.605 164.734  0.00  0.00    +0.000 C 
BRANCH  27  28
ATOM     28  C7  UNL     1     154.535 161.205 165.154  0.00  0.00    +0.000 A 
ATOM     29  C8  UNL     1     155.723 160.556 164.893  0.00  0.00    +0.000 A 
ATOM     30  C9  UNL     1     155.941 159.256 165.286  0.00  0.00    +0.000 A 
ATOM     31  C10 UNL     1     153.549 160.515 165.827  0.00  0.00    +0.000 A 
ATOM     32  C11 UNL     1     153.773 159.199 166.221  0.00  0.00    +0.000 A 
ATOM     33  C12 UNL     1     154.957 158.538 165.967  0.00  0.00    +0.000 A 
BRANCH  33  34
ATOM     34  O1  UNL     1     155.213 157.228 166.345  0.00  0.00    +0.000 OA
ATOM     35  C13 UNL     1     156.255 157.029 167.306  0.00  0.00    +0.000 C 
ENDBRANCH  33  34
ENDBRANCH  27  28
ENDBRANCH  24  27
ENDBRANCH   5  23
TORSDOF 7
ENDMDL
MODEL 5
REMARK VINA RESULT:      -7.0      8.557     13.282
REMARK  Name = ./3D_structures\o33_MMV831201_3D.pdb
REMARK  9 active torsions:
REMARK  status: ('A' for Active; 'I' for Inactive)
REMARK    1  A    between atoms: C1_2  and  C2_4
REMARK    2  A    between atoms: C4_8  and  C5_9
REMARK    3  A    between atoms: N3_10  and  C6_11
REMARK    4  A    between atoms: C6_11  and  C7_12
REMARK    5  A    between atoms: C12_17  and  O1_18
REMARK    6  A    between atoms: O1_18  and  C13_19
REMARK    7  A    between atoms: C15_23  and  C16_24
REMARK    8  A    between atoms: C21_29  and  C22_30
REMARK    9  A    between atoms: C22_30  and  C23_31
REMARK                            x       y       z     vdW  Elec       q    Type
REMARK                         _______ _______ _______ _____ _____    ______ ____
ROOT
ATOM      1  C2  UNL     1     158.629 158.526 165.612  0.00  0.00    +0.000 C 
ATOM      2  N1  UNL     1     160.011 158.203 165.672  0.00  0.00    +0.000 N 
ATOM      3  N2  UNL     1     160.824 157.843 164.667  0.00  0.00    +0.000 NA
ATOM      4  C3  UNL     1     162.046 157.619 165.123  0.00  0.00    +0.000 A 
ATOM      5  C4  UNL     1     162.049 157.834 166.468  0.00  0.00    +0.000 A 
ATOM      6  C14 UNL     1     160.727 158.208 166.786  0.00  0.00    +0.000 A 
ATOM      7  N4  UNL     1     160.121 158.557 168.021  0.00  0.00    +0.000 N 
ATOM      8  C15 UNL     1     158.685 158.370 168.133  0.00  0.00    +0.000 C 
ATOM      9  C24 UNL     1     158.009 158.865 166.907  0.00  0.00    +0.000 C 
ATOM     10  H13 UNL     1     160.718 158.925 168.779  0.00  0.00    +0.000 HD
ENDROOT
BRANCH   8  11
ATOM     11  C16 UNL     1     158.134 158.984 169.350  0.00  0.00    +0.000 A 
ATOM     12  C17 UNL     1     157.657 158.225 170.411  0.00  0.00    +0.000 A 
ATOM     13  C18 UNL     1     157.139 158.799 171.556  0.00  0.00    +0.000 A 
ATOM     14  C19 UNL     1     158.071 160.351 169.482  0.00  0.00    +0.000 A 
ATOM     15  C20 UNL     1     157.551 160.949 170.633  0.00  0.00    +0.000 A 
ATOM     16  C21 UNL     1     157.085 160.184 171.669  0.00  0.00    +0.000 A 
BRANCH  16  17
ATOM     17  C22 UNL     1     156.527 160.749 172.908  0.00  0.00    +0.000 C 
ATOM     18  C23 UNL     1     155.512 159.867 173.575  0.00  0.00    +0.000 C 
ENDBRANCH  16  17
ENDBRANCH   8  11
BRANCH   1  20
ATOM     19  F1  UNL     1     156.506 157.595 165.407  0.00  0.00    +0.000 F 
ATOM     20  C1  UNL     1     157.826 157.366 165.006  0.00  0.00    +0.000 C 
ATOM     21  F2  UNL     1     158.232 156.156 165.500  0.00  0.00    +0.000 F 
ATOM     22  F3  UNL     1     157.826 157.429 163.636  0.00  0.00    +0.000 F 
ENDBRANCH   1  20
BRANCH   5  23
ATOM     23  C5  UNL     1     163.118 157.727 167.443  0.00  0.00    +0.000 C 
ATOM     24  N3  UNL     1     164.235 158.587 167.475  0.00  0.00    +0.000 N 
ATOM     25  O2  UNL     1     163.074 156.827 168.319  0.00  0.00    +0.000 OA
ATOM     26  H3  UNL     1     164.285 159.338 166.755  0.00  0.00    +0.000 HD
BRANCH  24  27
ATOM     27  C6  UNL     1     165.278 158.402 168.502  0.00  0.00    +0.000 C 
BRANCH  27  28
ATOM     28  C7  UNL     1     165.440 159.651 169.288  0.00  0.00    +0.000 A 
ATOM     29  C8  UNL     1     166.231 159.719 170.414  0.00  0.00    +0.000 A 
ATOM     30  C9  UNL     1     166.369 160.883 171.136  0.00  0.00    +0.000 A 
ATOM     31  C10 UNL     1     164.775 160.789 168.889  0.00  0.00    +0.000 A 
ATOM     32  C11 UNL     1     164.915 161.965 169.620  0.00  0.00    +0.000 A 
ATOM     33  C12 UNL     1     165.703 162.047 170.749  0.00  0.00    +0.000 A 
BRANCH  33  34
ATOM     34  O1  UNL     1     165.865 163.201 171.503  0.00  0.00    +0.000 OA
ATOM     35  C13 UNL     1     164.732 164.070 171.597  0.00  0.00    +0.000 C 
ENDBRANCH  33  34
ENDBRANCH  27  28
ENDBRANCH  24  27
ENDBRANCH   5  23
TORSDOF 7
ENDMDL
MODEL 6
REMARK VINA RESULT:      -6.9      6.868      8.547
REMARK  Name = ./3D_structures\o33_MMV831201_3D.pdb
REMARK  9 active torsions:
REMARK  status: ('A' for Active; 'I' for Inactive)
REMARK    1  A    between atoms: C1_2  and  C2_4
REMARK    2  A    between atoms: C4_8  and  C5_9
REMARK    3  A    between atoms: N3_10  and  C6_11
REMARK    4  A    between atoms: C6_11  and  C7_12
REMARK    5  A    between atoms: C12_17  and  O1_18
REMARK    6  A    between atoms: O1_18  and  C13_19
REMARK    7  A    between atoms: C15_23  and  C16_24
REMARK    8  A    between atoms: C21_29  and  C22_30
REMARK    9  A    between atoms: C22_30  and  C23_31
REMARK                            x       y       z     vdW  Elec       q    Type
REMARK                         _______ _______ _______ _____ _____    ______ ____
ROOT
ATOM      1  C2  UNL     1     158.048 159.066 168.064  0.00  0.00    +0.000 C 
ATOM      2  N1  UNL     1     157.539 158.149 167.106  0.00  0.00    +0.000 N 
ATOM      3  N2  UNL     1     156.257 157.855 166.837  0.00  0.00    +0.000 NA
ATOM      4  C3  UNL     1     156.187 156.945 165.878  0.00  0.00    +0.000 A 
ATOM      5  C4  UNL     1     157.454 156.624 165.496  0.00  0.00    +0.000 A 
ATOM      6  C14 UNL     1     158.296 157.416 166.304  0.00  0.00    +0.000 A 
ATOM      7  N4  UNL     1     159.709 157.523 166.366  0.00  0.00    +0.000 N 
ATOM      8  C15 UNL     1     160.288 157.988 167.615  0.00  0.00    +0.000 C 
ATOM      9  C24 UNL     1     159.519 159.149 168.131  0.00  0.00    +0.000 C 
ATOM     10  H13 UNL     1     160.262 157.269 165.531  0.00  0.00    +0.000 HD
ENDROOT
BRANCH   8  11
ATOM     11  C16 UNL     1     161.721 158.291 167.489  0.00  0.00    +0.000 A 
ATOM     12  C17 UNL     1     162.190 159.581 167.276  0.00  0.00    +0.000 A 
ATOM     13  C18 UNL     1     163.535 159.868 167.157  0.00  0.00    +0.000 A 
ATOM     14  C19 UNL     1     162.662 157.292 167.581  0.00  0.00    +0.000 A 
ATOM     15  C20 UNL     1     164.028 157.564 167.464  0.00  0.00    +0.000 A 
ATOM     16  C21 UNL     1     164.471 158.843 167.253  0.00  0.00    +0.000 A 
BRANCH  16  17
ATOM     17  C22 UNL     1     165.893 159.198 167.122  0.00  0.00    +0.000 C 
ATOM     18  C23 UNL     1     166.751 158.691 168.243  0.00  0.00    +0.000 C 
ENDBRANCH  16  17
ENDBRANCH   8  11
BRANCH   1  20
ATOM     19  F1  UNL     1     158.635 158.941 170.312  0.00  0.00    +0.000 F 
ATOM     20  C1  UNL     1     157.541 158.718 169.471  0.00  0.00    +0.000 C 
ATOM     21  F2  UNL     1     157.174 157.403 169.566  0.00  0.00    +0.000 F 
ATOM     22  F3  UNL     1     156.564 159.591 169.874  0.00  0.00    +0.000 F 
ENDBRANCH   1  20
BRANCH   5  23
ATOM     23  C5  UNL     1     157.935 155.690 164.496  0.00  0.00    +0.000 C 
ATOM     24  N3  UNL     1     157.086 154.883 163.710  0.00  0.00    +0.000 N 
ATOM     25  O2  UNL     1     159.170 155.571 164.298  0.00  0.00    +0.000 OA
ATOM     26  H3  UNL     1     156.060 154.971 163.864  0.00  0.00    +0.000 HD
BRANCH  24  27
ATOM     27  C6  UNL     1     157.664 153.957 162.718  0.00  0.00    +0.000 C 
BRANCH  27  28
ATOM     28  C7  UNL     1     157.369 152.554 163.104  0.00  0.00    +0.000 A 
ATOM     29  C8  UNL     1     157.992 151.932 164.164  0.00  0.00    +0.000 A 
ATOM     30  C9  UNL     1     157.713 150.629 164.507  0.00  0.00    +0.000 A 
ATOM     31  C10 UNL     1     156.444 151.835 162.378  0.00  0.00    +0.000 A 
ATOM     32  C11 UNL     1     156.164 150.518 162.727  0.00  0.00    +0.000 A 
ATOM     33  C12 UNL     1     156.780 149.883 163.785  0.00  0.00    +0.000 A 
BRANCH  33  34
ATOM     34  O1  UNL     1     156.525 148.571 164.160  0.00  0.00    +0.000 OA
ATOM     35  C13 UNL     1     157.044 147.547 163.306  0.00  0.00    +0.000 C 
ENDBRANCH  33  34
ENDBRANCH  27  28
ENDBRANCH  24  27
ENDBRANCH   5  23
TORSDOF 7
ENDMDL
MODEL 7
REMARK VINA RESULT:      -6.7      6.664     11.195
REMARK  Name = ./3D_structures\o33_MMV831201_3D.pdb
REMARK  9 active torsions:
REMARK  status: ('A' for Active; 'I' for Inactive)
REMARK    1  A    between atoms: C1_2  and  C2_4
REMARK    2  A    between atoms: C4_8  and  C5_9
REMARK    3  A    between atoms: N3_10  and  C6_11
REMARK    4  A    between atoms: C6_11  and  C7_12
REMARK    5  A    between atoms: C12_17  and  O1_18
REMARK    6  A    between atoms: O1_18  and  C13_19
REMARK    7  A    between atoms: C15_23  and  C16_24
REMARK    8  A    between atoms: C21_29  and  C22_30
REMARK    9  A    between atoms: C22_30  and  C23_31
REMARK                            x       y       z     vdW  Elec       q    Type
REMARK                         _______ _______ _______ _____ _____    ______ ____
ROOT
ATOM      1  C2  UNL     1     155.809 158.367 167.903  0.00  0.00    +0.000 C 
ATOM      2  N1  UNL     1     156.455 157.627 166.877  0.00  0.00    +0.000 N 
ATOM      3  N2  UNL     1     155.946 156.646 166.114  0.00  0.00    +0.000 NA
ATOM      4  C3  UNL     1     156.862 156.199 165.271  0.00  0.00    +0.000 A 
ATOM      5  C4  UNL     1     158.013 156.900 165.474  0.00  0.00    +0.000 A 
ATOM      6  C14 UNL     1     157.715 157.807 166.512  0.00  0.00    +0.000 A 
ATOM      7  N4  UNL     1     158.507 158.794 167.153  0.00  0.00    +0.000 N 
ATOM      8  C15 UNL     1     158.124 159.184 168.499  0.00  0.00    +0.000 C 
ATOM      9  C24 UNL     1     156.653 159.373 168.575  0.00  0.00    +0.000 C 
ATOM     10  H13 UNL     1     159.314 159.189 166.644  0.00  0.00    +0.000 HD
ENDROOT
BRANCH   8  11
ATOM     11  C16 UNL     1     158.855 160.370 168.968  0.00  0.00    +0.000 A 
ATOM     12  C17 UNL     1     160.158 160.641 168.572  0.00  0.00    +0.000 A 
ATOM     13  C18 UNL     1     160.849 161.754 169.011  0.00  0.00    +0.000 A 
ATOM     14  C19 UNL     1     158.264 161.268 169.827  0.00  0.00    +0.000 A 
ATOM     15  C20 UNL     1     158.946 162.400 170.280  0.00  0.00    +0.000 A 
ATOM     16  C21 UNL     1     160.232 162.649 169.879  0.00  0.00    +0.000 A 
BRANCH  16  17
ATOM     17  C22 UNL     1     161.006 163.822 170.317  0.00  0.00    +0.000 C 
ATOM     18  C23 UNL     1     162.471 163.551 170.496  0.00  0.00    +0.000 C 
ENDBRANCH  16  17
ENDBRANCH   8  11
BRANCH   1  20
ATOM     19  F1  UNL     1     156.242 156.444 169.140  0.00  0.00    +0.000 F 
ATOM     20  C1  UNL     1     155.260 157.427 168.987  0.00  0.00    +0.000 C 
ATOM     21  F2  UNL     1     154.095 156.827 168.594  0.00  0.00    +0.000 F 
ATOM     22  F3  UNL     1     155.168 158.068 170.195  0.00  0.00    +0.000 F 
ENDBRANCH   1  20
BRANCH   5  23
ATOM     23  C5  UNL     1     159.307 156.806 164.826  0.00  0.00    +0.000 C 
ATOM     24  N3  UNL     1     160.519 156.626 165.524  0.00  0.00    +0.000 N 
ATOM     25  O2  UNL     1     159.384 156.886 163.574  0.00  0.00    +0.000 OA
ATOM     26  H3  UNL     1     160.471 156.558 166.562  0.00  0.00    +0.000 HD
BRANCH  24  27
ATOM     27  C6  UNL     1     161.791 156.544 164.782  0.00  0.00    +0.000 C 
BRANCH  27  28
ATOM     28  C7  UNL     1     162.905 157.036 165.631  0.00  0.00    +0.000 A 
ATOM     29  C8  UNL     1     164.182 157.218 165.146  0.00  0.00    +0.000 A 
ATOM     30  C9  UNL     1     165.205 157.670 165.946  0.00  0.00    +0.000 A 
ATOM     31  C10 UNL     1     162.665 157.318 166.959  0.00  0.00    +0.000 A 
ATOM     32  C11 UNL     1     163.703 157.774 167.766  0.00  0.00    +0.000 A 
ATOM     33  C12 UNL     1     164.985 157.961 167.293  0.00  0.00    +0.000 A 
BRANCH  33  34
ATOM     34  O1  UNL     1     166.042 158.413 168.070  0.00  0.00    +0.000 OA
ATOM     35  C13 UNL     1     165.709 158.977 169.342  0.00  0.00    +0.000 C 
ENDBRANCH  33  34
ENDBRANCH  27  28
ENDBRANCH  24  27
ENDBRANCH   5  23
TORSDOF 7
ENDMDL
MODEL 8
REMARK VINA RESULT:      -6.7      6.213     10.702
REMARK  Name = ./3D_structures\o33_MMV831201_3D.pdb
REMARK  9 active torsions:
REMARK  status: ('A' for Active; 'I' for Inactive)
REMARK    1  A    between atoms: C1_2  and  C2_4
REMARK    2  A    between atoms: C4_8  and  C5_9
REMARK    3  A    between atoms: N3_10  and  C6_11
REMARK    4  A    between atoms: C6_11  and  C7_12
REMARK    5  A    between atoms: C12_17  and  O1_18
REMARK    6  A    between atoms: O1_18  and  C13_19
REMARK    7  A    between atoms: C15_23  and  C16_24
REMARK    8  A    between atoms: C21_29  and  C22_30
REMARK    9  A    between atoms: C22_30  and  C23_31
REMARK                            x       y       z     vdW  Elec       q    Type
REMARK                         _______ _______ _______ _____ _____    ______ ____
ROOT
ATOM      1  C2  UNL     1     155.295 157.832 169.587  0.00  0.00    +0.000 C 
ATOM      2  N1  UNL     1     155.424 158.965 170.433  0.00  0.00    +0.000 N 
ATOM      3  N2  UNL     1     154.544 159.437 171.330  0.00  0.00    +0.000 NA
ATOM      4  C3  UNL     1     155.027 160.518 171.922  0.00  0.00    +0.000 A 
ATOM      5  C4  UNL     1     156.262 160.775 171.407  0.00  0.00    +0.000 A 
ATOM      6  C14 UNL     1     156.485 159.759 170.455  0.00  0.00    +0.000 A 
ATOM      7  N4  UNL     1     157.587 159.496 169.601  0.00  0.00    +0.000 N 
ATOM      8  C15 UNL     1     157.325 158.740 168.390  0.00  0.00    +0.000 C 
ATOM      9  C24 UNL     1     156.440 157.586 168.690  0.00  0.00    +0.000 C 
ATOM     10  H13 UNL     1     158.519 159.850 169.874  0.00  0.00    +0.000 HD
ENDROOT
BRANCH   8  11
ATOM     11  C16 UNL     1     158.562 158.321 167.713  0.00  0.00    +0.000 A 
ATOM     12  C17 UNL     1     159.820 158.650 168.200  0.00  0.00    +0.000 A 
ATOM     13  C18 UNL     1     160.984 158.259 167.566  0.00  0.00    +0.000 A 
ATOM     14  C19 UNL     1     158.515 157.577 166.557  0.00  0.00    +0.000 A 
ATOM     15  C20 UNL     1     159.681 157.172 165.903  0.00  0.00    +0.000 A 
ATOM     16  C21 UNL     1     160.913 157.507 166.398  0.00  0.00    +0.000 A 
BRANCH  16  17
ATOM     17  C22 UNL     1     162.179 157.112 165.761  0.00  0.00    +0.000 C 
ATOM     18  C23 UNL     1     163.256 156.730 166.734  0.00  0.00    +0.000 C 
ENDBRANCH  16  17
ENDBRANCH   8  11
BRANCH   1  20
ATOM     19  F1  UNL     1     153.882 159.322 168.491  0.00  0.00    +0.000 F 
ATOM     20  C1  UNL     1     154.039 157.950 168.710  0.00  0.00    +0.000 C 
ATOM     21  F2  UNL     1     152.927 157.477 169.352  0.00  0.00    +0.000 F 
ATOM     22  F3  UNL     1     154.244 157.386 167.477  0.00  0.00    +0.000 F 
ENDBRANCH   1  20
BRANCH   5  23
ATOM     23  C5  UNL     1     157.211 161.832 171.702  0.00  0.00    +0.000 C 
ATOM     24  N3  UNL     1     157.988 162.481 170.719  0.00  0.00    +0.000 N 
ATOM     25  O2  UNL     1     157.371 162.212 172.888  0.00  0.00    +0.000 OA
ATOM     26  H3  UNL     1     157.865 162.176 169.731  0.00  0.00    +0.000 HD
BRANCH  24  27
ATOM     27  C6  UNL     1     158.930 163.545 171.111  0.00  0.00    +0.000 C 
BRANCH  27  28
ATOM     28  C7  UNL     1     160.273 163.263 170.545  0.00  0.00    +0.000 A 
ATOM     29  C8  UNL     1     160.473 162.359 169.524  0.00  0.00    +0.000 A 
ATOM     30  C9  UNL     1     161.725 162.105 169.013  0.00  0.00    +0.000 A 
ATOM     31  C10 UNL     1     161.371 163.921 171.057  0.00  0.00    +0.000 A 
ATOM     32  C11 UNL     1     162.636 163.662 170.538  0.00  0.00    +0.000 A 
ATOM     33  C12 UNL     1     162.850 162.760 169.517  0.00  0.00    +0.000 A 
BRANCH  33  34
ATOM     34  O1  UNL     1     164.096 162.477 168.977  0.00  0.00    +0.000 OA
ATOM     35  C13 UNL     1     164.699 161.239 169.367  0.00  0.00    +0.000 C 
ENDBRANCH  33  34
ENDBRANCH  27  28
ENDBRANCH  24  27
ENDBRANCH   5  23
TORSDOF 7
ENDMDL
MODEL 9
REMARK VINA RESULT:      -6.7      7.631      9.690
REMARK  Name = ./3D_structures\o33_MMV831201_3D.pdb
REMARK  9 active torsions:
REMARK  status: ('A' for Active; 'I' for Inactive)
REMARK    1  A    between atoms: C1_2  and  C2_4
REMARK    2  A    between atoms: C4_8  and  C5_9
REMARK    3  A    between atoms: N3_10  and  C6_11
REMARK    4  A    between atoms: C6_11  and  C7_12
REMARK    5  A    between atoms: C12_17  and  O1_18
REMARK    6  A    between atoms: O1_18  and  C13_19
REMARK    7  A    between atoms: C15_23  and  C16_24
REMARK    8  A    between atoms: C21_29  and  C22_30
REMARK    9  A    between atoms: C22_30  and  C23_31
REMARK                            x       y       z     vdW  Elec       q    Type
REMARK                         _______ _______ _______ _____ _____    ______ ____
ROOT
ATOM      1  C2  UNL     1     161.766 157.644 165.948  0.00  0.00    +0.000 C 
ATOM      2  N1  UNL     1     161.201 156.898 164.880  0.00  0.00    +0.000 N 
ATOM      3  N2  UNL     1     161.792 156.497 163.743  0.00  0.00    +0.000 NA
ATOM      4  C3  UNL     1     160.934 155.826 162.992  0.00  0.00    +0.000 A 
ATOM      5  C4  UNL     1     159.739 155.776 163.643  0.00  0.00    +0.000 A 
ATOM      6  C14 UNL     1     159.947 156.474 164.851  0.00  0.00    +0.000 A 
ATOM      7  N4  UNL     1     159.076 156.754 165.936  0.00  0.00    +0.000 N 
ATOM      8  C15 UNL     1     159.388 157.910 166.758  0.00  0.00    +0.000 C 
ATOM      9  C24 UNL     1     160.842 157.946 167.058  0.00  0.00    +0.000 C 
ATOM     10  H13 UNL     1     158.267 156.132 166.095  0.00  0.00    +0.000 HD
ENDROOT
BRANCH   8  11
ATOM     11  C16 UNL     1     158.574 157.963 167.981  0.00  0.00    +0.000 A 
ATOM     12  C17 UNL     1     157.301 157.410 168.048  0.00  0.00    +0.000 A 
ATOM     13  C18 UNL     1     156.533 157.459 169.195  0.00  0.00    +0.000 A 
ATOM     14  C19 UNL     1     159.051 158.571 169.119  0.00  0.00    +0.000 A 
ATOM     15  C20 UNL     1     158.289 158.629 170.289  0.00  0.00    +0.000 A 
ATOM     16  C21 UNL     1     157.035 158.078 170.335  0.00  0.00    +0.000 A 
BRANCH  16  17
ATOM     17  C22 UNL     1     156.182 158.103 171.533  0.00  0.00    +0.000 C 
ATOM     18  C23 UNL     1     156.200 159.412 172.266  0.00  0.00    +0.000 C 
ENDBRANCH  16  17
ENDBRANCH   8  11
BRANCH   1  20
ATOM     19  F1  UNL     1     162.387 159.798 166.572  0.00  0.00    +0.000 F 
ATOM     20  C1  UNL     1     162.328 158.980 165.440  0.00  0.00    +0.000 C 
ATOM     21  F2  UNL     1     161.498 159.561 164.520  0.00  0.00    +0.000 F 
ATOM     22  F3  UNL     1     163.620 158.837 165.003  0.00  0.00    +0.000 F 
ENDBRANCH   1  20
BRANCH   5  23
ATOM     23  C5  UNL     1     158.476 155.171 163.263  0.00  0.00    +0.000 C 
ATOM     24  N3  UNL     1     158.375 153.988 162.502  0.00  0.00    +0.000 N 
ATOM     25  O2  UNL     1     157.397 155.708 163.618  0.00  0.00    +0.000 OA
ATOM     26  H3  UNL     1     159.262 153.533 162.201  0.00  0.00    +0.000 HD
BRANCH  24  27
ATOM     27  C6  UNL     1     157.047 153.445 162.159  0.00  0.00    +0.000 C 
BRANCH  27  28
ATOM     28  C7  UNL     1     156.936 152.044 162.637  0.00  0.00    +0.000 A 
ATOM     29  C8  UNL     1     156.545 151.010 161.814  0.00  0.00    +0.000 A 
ATOM     30  C9  UNL     1     156.441 149.717 162.272  0.00  0.00    +0.000 A 
ATOM     31  C10 UNL     1     157.225 151.756 163.953  0.00  0.00    +0.000 A 
ATOM     32  C11 UNL     1     157.119 150.448 164.414  0.00  0.00    +0.000 A 
ATOM     33  C12 UNL     1     156.729 149.403 163.601  0.00  0.00    +0.000 A 
BRANCH  33  34
ATOM     34  O1  UNL     1     156.612 148.088 164.027  0.00  0.00    +0.000 OA
ATOM     35  C13 UNL     1     156.224 147.126 163.041  0.00  0.00    +0.000 C 
ENDBRANCH  33  34
ENDBRANCH  27  28
ENDBRANCH  24  27
ENDBRANCH   5  23
TORSDOF 7
ENDMDL
