MODEL 1
REMARK VINA RESULT:      -7.3      0.000      0.000
REMARK  Name = ./3D_structures\o36_MMV1581558_3D.pdb
REMARK  4 active torsions:
REMARK  status: ('A' for Active; 'I' for Inactive)
REMARK    1  A    between atoms: C1_1  and  C2_2
REMARK    2  A    between atoms: C6_6  and  C7_7
REMARK    3  A    between atoms: C8_8  and  C9_9
REMARK    4  A    between atoms: C11_14  and  C19_22
REMARK                            x       y       z     vdW  Elec       q    Type
REMARK                         _______ _______ _______ _____ _____    ______ ____
ROOT
ATOM      1  C9  UNL     1     157.310 157.477 167.315  0.00  0.00    +0.000 C 
ATOM      2  O1  UNL     1     157.509 156.226 167.062  0.00  0.00    +0.000 OA
ATOM      3  N1  UNL     1     157.354 158.337 166.186  0.00  0.00    +0.000 N 
ATOM      4  C10 UNL     1     157.599 157.795 164.870  0.00  0.00    +0.000 A 
ATOM      5  N2  UNL     1     157.782 156.491 164.724  0.00  0.00    +0.000 NA
ATOM      6  C11 UNL     1     158.013 155.941 163.519  0.00  0.00    +0.000 A 
ATOM      7  C12 UNL     1     158.067 156.707 162.401  0.00  0.00    +0.000 A 
ATOM      8  C13 UNL     1     157.882 158.079 162.511  0.00  0.00    +0.000 A 
ATOM      9  C14 UNL     1     157.940 158.852 161.366  0.00  0.00    +0.000 A 
ATOM     10  C15 UNL     1     157.759 160.208 161.450  0.00  0.00    +0.000 A 
ATOM     11  C16 UNL     1     157.523 160.756 162.693  0.00  0.00    +0.000 A 
ATOM     12  C17 UNL     1     157.466 159.968 163.847  0.00  0.00    +0.000 A 
ATOM     13  C18 UNL     1     157.648 158.603 163.761  0.00  0.00    +0.000 A 
ATOM     14  H10 UNL     1     157.210 159.337 166.333  0.00  0.00    +0.000 HD
ENDROOT
BRANCH   1  22
ATOM     15  C1  UNL     1     154.640 157.275 168.586  0.00  0.00    +0.000 C 
ATOM     16  C2  UNL     1     155.851 157.788 169.276  0.00  0.00    +0.000 A 
ATOM     17  C3  UNL     1     155.739 158.214 170.612  0.00  0.00    +0.000 A 
ATOM     18  C4  UNL     1     156.794 158.653 171.358  0.00  0.00    +0.000 A 
ATOM     19  C5  UNL     1     158.028 158.673 170.751  0.00  0.00    +0.000 A 
ATOM     20  C6  UNL     1     158.178 158.262 169.436  0.00  0.00    +0.000 A 
ATOM     21  C7  UNL     1     159.508 158.296 168.780  0.00  0.00    +0.000 C 
ATOM     22  C8  UNL     1     157.081 157.814 168.683  0.00  0.00    +0.000 A 
ENDBRANCH   1  22
BRANCH   6  23
ATOM     23  C19 UNL     1     158.202 154.496 163.454  0.00  0.00    +0.000 A 
ATOM     24  C20 UNL     1     158.734 153.751 164.474  0.00  0.00    +0.000 A 
ATOM     25  C21 UNL     1     158.897 152.380 164.370  0.00  0.00    +0.000 A 
ATOM     26  C22 UNL     1     158.525 151.703 163.228  0.00  0.00    +0.000 A 
ATOM     27  C23 UNL     1     157.991 152.475 162.215  0.00  0.00    +0.000 A 
ATOM     28  N3  UNL     1     157.845 153.798 162.339  0.00  0.00    +0.000 NA
ENDBRANCH   6  23
TORSDOF 2
ENDMDL
MODEL 2
REMARK VINA RESULT:      -7.0      1.346      4.646
REMARK  Name = ./3D_structures\o36_MMV1581558_3D.pdb
REMARK  4 active torsions:
REMARK  status: ('A' for Active; 'I' for Inactive)
REMARK    1  A    between atoms: C1_1  and  C2_2
REMARK    2  A    between atoms: C6_6  and  C7_7
REMARK    3  A    between atoms: C8_8  and  C9_9
REMARK    4  A    between atoms: C11_14  and  C19_22
REMARK                            x       y       z     vdW  Elec       q    Type
REMARK                         _______ _______ _______ _____ _____    ______ ____
ROOT
ATOM      1  C9  UNL     1     157.493 157.663 167.048  0.00  0.00    +0.000 C 
ATOM      2  O1  UNL     1     157.338 158.705 166.301  0.00  0.00    +0.000 OA
ATOM      3  N1  UNL     1     157.874 156.479 166.360  0.00  0.00    +0.000 N 
ATOM      4  C10 UNL     1     158.068 156.501 164.930  0.00  0.00    +0.000 A 
ATOM      5  N2  UNL     1     157.890 157.633 164.263  0.00  0.00    +0.000 NA
ATOM      6  C11 UNL     1     158.059 157.701 162.931  0.00  0.00    +0.000 A 
ATOM      7  C12 UNL     1     158.422 156.607 162.216  0.00  0.00    +0.000 A 
ATOM      8  C13 UNL     1     158.619 155.401 162.877  0.00  0.00    +0.000 A 
ATOM      9  C14 UNL     1     158.989 154.292 162.140  0.00  0.00    +0.000 A 
ATOM     10  C15 UNL     1     159.189 153.091 162.770  0.00  0.00    +0.000 A 
ATOM     11  C16 UNL     1     159.011 153.038 164.136  0.00  0.00    +0.000 A 
ATOM     12  C17 UNL     1     158.637 154.165 164.876  0.00  0.00    +0.000 A 
ATOM     13  C18 UNL     1     158.436 155.372 164.240  0.00  0.00    +0.000 A 
ATOM     14  H10 UNL     1     158.003 155.624 166.904  0.00  0.00    +0.000 HD
ENDROOT
BRANCH   1  22
ATOM     15  C1  UNL     1     154.845 157.197 168.293  0.00  0.00    +0.000 C 
ATOM     16  C2  UNL     1     156.033 157.697 169.031  0.00  0.00    +0.000 A 
ATOM     17  C3  UNL     1     155.908 157.976 170.405  0.00  0.00    +0.000 A 
ATOM     18  C4  UNL     1     156.944 158.388 171.191  0.00  0.00    +0.000 A 
ATOM     19  C5  UNL     1     158.173 158.532 170.588  0.00  0.00    +0.000 A 
ATOM     20  C6  UNL     1     158.334 158.268 169.237  0.00  0.00    +0.000 A 
ATOM     21  C7  UNL     1     159.657 158.435 168.587  0.00  0.00    +0.000 C 
ATOM     22  C8  UNL     1     157.257 157.845 168.443  0.00  0.00    +0.000 A 
ENDBRANCH   1  22
BRANCH   6  23
ATOM     23  C19 UNL     1     157.841 158.989 162.282  0.00  0.00    +0.000 A 
ATOM     24  C20 UNL     1     157.685 159.143 160.928  0.00  0.00    +0.000 A 
ATOM     25  C21 UNL     1     157.480 160.385 160.352  0.00  0.00    +0.000 A 
ATOM     26  C22 UNL     1     157.423 161.526 161.123  0.00  0.00    +0.000 A 
ATOM     27  C23 UNL     1     157.582 161.346 162.483  0.00  0.00    +0.000 A 
ATOM     28  N3  UNL     1     157.780 160.136 163.016  0.00  0.00    +0.000 NA
ENDBRANCH   6  23
TORSDOF 2
ENDMDL
MODEL 3
REMARK VINA RESULT:      -6.9      3.150      6.362
REMARK  Name = ./3D_structures\o36_MMV1581558_3D.pdb
REMARK  4 active torsions:
REMARK  status: ('A' for Active; 'I' for Inactive)
REMARK    1  A    between atoms: C1_1  and  C2_2
REMARK    2  A    between atoms: C6_6  and  C7_7
REMARK    3  A    between atoms: C8_8  and  C9_9
REMARK    4  A    between atoms: C11_14  and  C19_22
REMARK                            x       y       z     vdW  Elec       q    Type
REMARK                         _______ _______ _______ _____ _____    ______ ____
ROOT
ATOM      1  C9  UNL     1     155.089 160.989 165.714  0.00  0.00    +0.000 C 
ATOM      2  O1  UNL     1     155.584 160.056 164.970  0.00  0.00    +0.000 OA
ATOM      3  N1  UNL     1     155.387 160.879 167.099  0.00  0.00    +0.000 N 
ATOM      4  C10 UNL     1     156.198 159.787 167.582  0.00  0.00    +0.000 A 
ATOM      5  N2  UNL     1     156.662 158.888 166.726  0.00  0.00    +0.000 NA
ATOM      6  C11 UNL     1     157.421 157.855 167.130  0.00  0.00    +0.000 A 
ATOM      7  C12 UNL     1     157.742 157.693 168.437  0.00  0.00    +0.000 A 
ATOM      8  C13 UNL     1     157.274 158.612 169.368  0.00  0.00    +0.000 A 
ATOM      9  C14 UNL     1     157.606 158.438 170.699  0.00  0.00    +0.000 A 
ATOM     10  C15 UNL     1     157.156 159.333 171.635  0.00  0.00    +0.000 A 
ATOM     11  C16 UNL     1     156.379 160.387 171.204  0.00  0.00    +0.000 A 
ATOM     12  C17 UNL     1     156.048 160.557 169.856  0.00  0.00    +0.000 A 
ATOM     13  C18 UNL     1     156.501 159.656 168.915  0.00  0.00    +0.000 A 
ATOM     14  H10 UNL     1     155.013 161.587 167.732  0.00  0.00    +0.000 HD
ENDROOT
BRANCH   1  22
ATOM     15  C1  UNL     1     152.163 160.738 165.317  0.00  0.00    +0.000 C 
ATOM     16  C2  UNL     1     152.978 161.866 164.796  0.00  0.00    +0.000 A 
ATOM     17  C3  UNL     1     152.338 162.882 164.063  0.00  0.00    +0.000 A 
ATOM     18  C4  UNL     1     152.977 163.988 163.584  0.00  0.00    +0.000 A 
ATOM     19  C5  UNL     1     154.323 164.098 163.843  0.00  0.00    +0.000 A 
ATOM     20  C6  UNL     1     154.989 163.117 164.561  0.00  0.00    +0.000 A 
ATOM     21  C7  UNL     1     156.444 163.232 164.829  0.00  0.00    +0.000 C 
ATOM     22  C8  UNL     1     154.315 161.985 165.046  0.00  0.00    +0.000 A 
ENDBRANCH   1  22
BRANCH   6  23
ATOM     23  C19 UNL     1     157.888 156.915 166.116  0.00  0.00    +0.000 A 
ATOM     24  C20 UNL     1     157.076 156.008 165.486  0.00  0.00    +0.000 A 
ATOM     25  C21 UNL     1     157.561 155.133 164.529  0.00  0.00    +0.000 A 
ATOM     26  C22 UNL     1     158.891 155.140 164.167  0.00  0.00    +0.000 A 
ATOM     27  C23 UNL     1     159.689 156.062 164.815  0.00  0.00    +0.000 A 
ATOM     28  N3  UNL     1     159.197 156.896 165.737  0.00  0.00    +0.000 NA
ENDBRANCH   6  23
TORSDOF 2
ENDMDL
MODEL 4
REMARK VINA RESULT:      -6.9      3.180      6.010
REMARK  Name = ./3D_structures\o36_MMV1581558_3D.pdb
REMARK  4 active torsions:
REMARK  status: ('A' for Active; 'I' for Inactive)
REMARK    1  A    between atoms: C1_1  and  C2_2
REMARK    2  A    between atoms: C6_6  and  C7_7
REMARK    3  A    between atoms: C8_8  and  C9_9
REMARK    4  A    between atoms: C11_14  and  C19_22
REMARK                            x       y       z     vdW  Elec       q    Type
REMARK                         _______ _______ _______ _____ _____    ______ ____
ROOT
ATOM      1  C9  UNL     1     161.491 158.999 167.033  0.00  0.00    +0.000 C 
ATOM      2  O1  UNL     1     161.253 158.445 165.891  0.00  0.00    +0.000 OA
ATOM      3  N1  UNL     1     160.463 158.851 168.003  0.00  0.00    +0.000 N 
ATOM      4  C10 UNL     1     159.263 158.115 167.682  0.00  0.00    +0.000 A 
ATOM      5  N2  UNL     1     159.127 157.579 166.478  0.00  0.00    +0.000 NA
ATOM      6  C11 UNL     1     158.028 156.885 166.134  0.00  0.00    +0.000 A 
ATOM      7  C12 UNL     1     157.011 156.707 167.013  0.00  0.00    +0.000 A 
ATOM      8  C13 UNL     1     157.114 157.254 168.286  0.00  0.00    +0.000 A 
ATOM      9  C14 UNL     1     156.072 157.068 169.175  0.00  0.00    +0.000 A 
ATOM     10  C15 UNL     1     156.151 157.597 170.437  0.00  0.00    +0.000 A 
ATOM     11  C16 UNL     1     157.284 158.306 170.774  0.00  0.00    +0.000 A 
ATOM     12  C17 UNL     1     158.335 158.490 169.869  0.00  0.00    +0.000 A 
ATOM     13  C18 UNL     1     158.254 157.956 168.600  0.00  0.00    +0.000 A 
ATOM     14  H10 UNL     1     160.599 159.277 168.921  0.00  0.00    +0.000 HD
ENDROOT
BRANCH   1  22
ATOM     15  C1  UNL     1     161.778 161.908 166.547  0.00  0.00    +0.000 C 
ATOM     16  C2  UNL     1     162.910 161.006 166.878  0.00  0.00    +0.000 A 
ATOM     17  C3  UNL     1     164.206 161.549 166.964  0.00  0.00    +0.000 A 
ATOM     18  C4  UNL     1     165.309 160.826 167.312  0.00  0.00    +0.000 A 
ATOM     19  C5  UNL     1     165.124 159.492 167.592  0.00  0.00    +0.000 A 
ATOM     20  C6  UNL     1     163.864 158.921 167.516  0.00  0.00    +0.000 A 
ATOM     21  C7  UNL     1     163.669 157.479 167.807  0.00  0.00    +0.000 C 
ATOM     22  C8  UNL     1     162.739 159.680 167.156  0.00  0.00    +0.000 A 
ENDBRANCH   1  22
BRANCH   6  23
ATOM     23  C19 UNL     1     157.966 156.331 164.786  0.00  0.00    +0.000 A 
ATOM     24  C20 UNL     1     157.696 155.014 164.516  0.00  0.00    +0.000 A 
ATOM     25  C21 UNL     1     157.647 154.529 163.220  0.00  0.00    +0.000 A 
ATOM     26  C22 UNL     1     157.868 155.356 162.141  0.00  0.00    +0.000 A 
ATOM     27  C23 UNL     1     158.138 156.678 162.438  0.00  0.00    +0.000 A 
ATOM     28  N3  UNL     1     158.181 157.123 163.698  0.00  0.00    +0.000 NA
ENDBRANCH   6  23
TORSDOF 2
ENDMDL
MODEL 5
REMARK VINA RESULT:      -6.8      2.539      3.535
REMARK  Name = ./3D_structures\o36_MMV1581558_3D.pdb
REMARK  4 active torsions:
REMARK  status: ('A' for Active; 'I' for Inactive)
REMARK    1  A    between atoms: C1_1  and  C2_2
REMARK    2  A    between atoms: C6_6  and  C7_7
REMARK    3  A    between atoms: C8_8  and  C9_9
REMARK    4  A    between atoms: C11_14  and  C19_22
REMARK                            x       y       z     vdW  Elec       q    Type
REMARK                         _______ _______ _______ _____ _____    ______ ____
ROOT
ATOM      1  C9  UNL     1     156.093 157.682 167.175  0.00  0.00    +0.000 C 
ATOM      2  O1  UNL     1     155.913 156.620 166.463  0.00  0.00    +0.000 OA
ATOM      3  N1  UNL     1     157.427 158.170 167.206  0.00  0.00    +0.000 N 
ATOM      4  C10 UNL     1     158.465 157.492 166.467  0.00  0.00    +0.000 A 
ATOM      5  N2  UNL     1     158.165 156.411 165.760  0.00  0.00    +0.000 NA
ATOM      6  C11 UNL     1     159.098 155.746 165.056  0.00  0.00    +0.000 A 
ATOM      7  C12 UNL     1     160.389 156.160 165.043  0.00  0.00    +0.000 A 
ATOM      8  C13 UNL     1     160.746 157.288 165.772  0.00  0.00    +0.000 A 
ATOM      9  C14 UNL     1     162.065 157.702 165.753  0.00  0.00    +0.000 A 
ATOM     10  C15 UNL     1     162.441 158.812 166.464  0.00  0.00    +0.000 A 
ATOM     11  C16 UNL     1     161.472 159.482 167.180  0.00  0.00    +0.000 A 
ATOM     12  C17 UNL     1     160.139 159.058 167.194  0.00  0.00    +0.000 A 
ATOM     13  C18 UNL     1     159.763 157.940 166.478  0.00  0.00    +0.000 A 
ATOM     14  H10 UNL     1     157.625 159.004 167.760  0.00  0.00    +0.000 HD
ENDROOT
BRANCH   1  22
ATOM     15  C1  UNL     1     154.160 159.468 165.812  0.00  0.00    +0.000 C 
ATOM     16  C2  UNL     1     154.066 159.080 167.242  0.00  0.00    +0.000 A 
ATOM     17  C3  UNL     1     153.002 159.587 168.013  0.00  0.00    +0.000 A 
ATOM     18  C4  UNL     1     152.788 159.256 169.319  0.00  0.00    +0.000 A 
ATOM     19  C5  UNL     1     153.673 158.375 169.897  0.00  0.00    +0.000 A 
ATOM     20  C6  UNL     1     154.732 157.855 169.171  0.00  0.00    +0.000 A 
ATOM     21  C7  UNL     1     155.691 156.915 169.801  0.00  0.00    +0.000 C 
ATOM     22  C8  UNL     1     154.938 158.207 167.828  0.00  0.00    +0.000 A 
ENDBRANCH   1  22
BRANCH   6  23
ATOM     23  C19 UNL     1     158.676 154.568 164.307  0.00  0.00    +0.000 A 
ATOM     24  C20 UNL     1     157.887 154.619 163.187  0.00  0.00    +0.000 A 
ATOM     25  C21 UNL     1     157.508 153.475 162.506  0.00  0.00    +0.000 A 
ATOM     26  C22 UNL     1     157.914 152.227 162.929  0.00  0.00    +0.000 A 
ATOM     27  C23 UNL     1     158.708 152.201 164.059  0.00  0.00    +0.000 A 
ATOM     28  N3  UNL     1     159.060 153.321 164.700  0.00  0.00    +0.000 NA
ENDBRANCH   6  23
TORSDOF 2
ENDMDL
MODEL 6
REMARK VINA RESULT:      -6.5     13.626     17.471
REMARK  Name = ./3D_structures\o36_MMV1581558_3D.pdb
REMARK  4 active torsions:
REMARK  status: ('A' for Active; 'I' for Inactive)
REMARK    1  A    between atoms: C1_1  and  C2_2
REMARK    2  A    between atoms: C6_6  and  C7_7
REMARK    3  A    between atoms: C8_8  and  C9_9
REMARK    4  A    between atoms: C11_14  and  C19_22
REMARK                            x       y       z     vdW  Elec       q    Type
REMARK                         _______ _______ _______ _____ _____    ______ ____
ROOT
ATOM      1  C9  UNL     1     163.917 142.887 167.383  0.00  0.00    +0.000 C 
ATOM      2  O1  UNL     1     164.960 142.892 168.144  0.00  0.00    +0.000 OA
ATOM      3  N1  UNL     1     164.108 142.305 166.100  0.00  0.00    +0.000 N 
ATOM      4  C10 UNL     1     165.395 141.764 165.733  0.00  0.00    +0.000 A 
ATOM      5  N2  UNL     1     166.397 141.815 166.600  0.00  0.00    +0.000 NA
ATOM      6  C11 UNL     1     167.613 141.325 166.302  0.00  0.00    +0.000 A 
ATOM      7  C12 UNL     1     167.860 140.756 165.096  0.00  0.00    +0.000 A 
ATOM      8  C13 UNL     1     166.837 140.684 164.159  0.00  0.00    +0.000 A 
ATOM      9  C14 UNL     1     167.099 140.102 162.932  0.00  0.00    +0.000 A 
ATOM     10  C15 UNL     1     166.105 140.019 161.992  0.00  0.00    +0.000 A 
ATOM     11  C16 UNL     1     164.864 140.527 162.313  0.00  0.00    +0.000 A 
ATOM     12  C17 UNL     1     164.606 141.113 163.557  0.00  0.00    +0.000 A 
ATOM     13  C18 UNL     1     165.608 141.196 164.501  0.00  0.00    +0.000 A 
ATOM     14  H10 UNL     1     163.316 142.282 165.457  0.00  0.00    +0.000 HD
ENDROOT
BRANCH   1  22
ATOM     15  C1  UNL     1     163.250 145.757 167.063  0.00  0.00    +0.000 C 
ATOM     16  C2  UNL     1     162.434 144.797 167.850  0.00  0.00    +0.000 A 
ATOM     17  C3  UNL     1     161.273 145.265 168.493  0.00  0.00    +0.000 A 
ATOM     18  C4  UNL     1     160.422 144.463 169.196  0.00  0.00    +0.000 A 
ATOM     19  C5  UNL     1     160.733 143.125 169.268  0.00  0.00    +0.000 A 
ATOM     20  C6  UNL     1     161.868 142.628 168.649  0.00  0.00    +0.000 A 
ATOM     21  C7  UNL     1     162.208 141.186 168.738  0.00  0.00    +0.000 C 
ATOM     22  C8  UNL     1     162.734 143.467 167.930  0.00  0.00    +0.000 A 
ENDBRANCH   1  22
BRANCH   6  23
ATOM     23  C19 UNL     1     168.655 141.424 167.318  0.00  0.00    +0.000 A 
ATOM     24  C20 UNL     1     168.621 140.750 168.512  0.00  0.00    +0.000 A 
ATOM     25  C21 UNL     1     169.633 140.874 169.449  0.00  0.00    +0.000 A 
ATOM     26  C22 UNL     1     170.724 141.684 169.218  0.00  0.00    +0.000 A 
ATOM     27  C23 UNL     1     170.735 142.351 168.008  0.00  0.00    +0.000 A 
ATOM     28  N3  UNL     1     169.746 142.217 167.119  0.00  0.00    +0.000 NA
ENDBRANCH   6  23
TORSDOF 2
ENDMDL
MODEL 7
REMARK VINA RESULT:      -6.4     16.661     19.362
REMARK  Name = ./3D_structures\o36_MMV1581558_3D.pdb
REMARK  4 active torsions:
REMARK  status: ('A' for Active; 'I' for Inactive)
REMARK    1  A    between atoms: C1_1  and  C2_2
REMARK    2  A    between atoms: C6_6  and  C7_7
REMARK    3  A    between atoms: C8_8  and  C9_9
REMARK    4  A    between atoms: C11_14  and  C19_22
REMARK                            x       y       z     vdW  Elec       q    Type
REMARK                         _______ _______ _______ _____ _____    ______ ____
ROOT
ATOM      1  C9  UNL     1     167.591 141.632 165.099  0.00  0.00    +0.000 C 
ATOM      2  O1  UNL     1     168.670 141.682 164.390  0.00  0.00    +0.000 OA
ATOM      3  N1  UNL     1     166.477 141.023 164.461  0.00  0.00    +0.000 N 
ATOM      4  C10 UNL     1     166.602 140.506 163.119  0.00  0.00    +0.000 A 
ATOM      5  N2  UNL     1     167.763 140.602 162.487  0.00  0.00    +0.000 NA
ATOM      6  C11 UNL     1     167.926 140.135 161.237  0.00  0.00    +0.000 A 
ATOM      7  C12 UNL     1     166.903 139.543 160.573  0.00  0.00    +0.000 A 
ATOM      8  C13 UNL     1     165.669 139.422 161.200  0.00  0.00    +0.000 A 
ATOM      9  C14 UNL     1     164.632 138.817 160.515  0.00  0.00    +0.000 A 
ATOM     10  C15 UNL     1     163.406 138.687 161.114  0.00  0.00    +0.000 A 
ATOM     11  C16 UNL     1     163.254 139.171 162.396  0.00  0.00    +0.000 A 
ATOM     12  C17 UNL     1     164.309 139.782 163.083  0.00  0.00    +0.000 A 
ATOM     13  C18 UNL     1     165.542 139.912 162.479  0.00  0.00    +0.000 A 
ATOM     14  H10 UNL     1     165.597 140.965 164.976  0.00  0.00    +0.000 HD
ENDROOT
BRANCH   1  22
ATOM     15  C1  UNL     1     168.257 140.021 167.495  0.00  0.00    +0.000 C 
ATOM     16  C2  UNL     1     167.914 141.466 167.535  0.00  0.00    +0.000 A 
ATOM     17  C3  UNL     1     167.894 142.123 168.779  0.00  0.00    +0.000 A 
ATOM     18  C4  UNL     1     167.644 143.456 168.928  0.00  0.00    +0.000 A 
ATOM     19  C5  UNL     1     167.401 144.182 167.785  0.00  0.00    +0.000 A 
ATOM     20  C6  UNL     1     167.411 143.569 166.541  0.00  0.00    +0.000 A 
ATOM     21  C7  UNL     1     167.138 144.352 165.311  0.00  0.00    +0.000 C 
ATOM     22  C8  UNL     1     167.669 142.196 166.407  0.00  0.00    +0.000 A 
ENDBRANCH   1  22
BRANCH   6  23
ATOM     23  C19 UNL     1     169.240 140.285 160.620  0.00  0.00    +0.000 A 
ATOM     24  C20 UNL     1     169.757 139.404 159.705  0.00  0.00    +0.000 A 
ATOM     25  C21 UNL     1     171.009 139.584 159.143  0.00  0.00    +0.000 A 
ATOM     26  C22 UNL     1     171.793 140.665 159.483  0.00  0.00    +0.000 A 
ATOM     27  C23 UNL     1     171.251 141.538 160.406  0.00  0.00    +0.000 A 
ATOM     28  N3  UNL     1     170.039 141.343 160.935  0.00  0.00    +0.000 NA
ENDBRANCH   6  23
TORSDOF 2
ENDMDL
MODEL 8
REMARK VINA RESULT:      -6.4      8.444     10.756
REMARK  Name = ./3D_structures\o36_MMV1581558_3D.pdb
REMARK  4 active torsions:
REMARK  status: ('A' for Active; 'I' for Inactive)
REMARK    1  A    between atoms: C1_1  and  C2_2
REMARK    2  A    between atoms: C6_6  and  C7_7
REMARK    3  A    between atoms: C8_8  and  C9_9
REMARK    4  A    between atoms: C11_14  and  C19_22
REMARK                            x       y       z     vdW  Elec       q    Type
REMARK                         _______ _______ _______ _____ _____    ______ ____
ROOT
ATOM      1  C9  UNL     1     151.065 162.368 169.764  0.00  0.00    +0.000 C 
ATOM      2  O1  UNL     1     151.991 162.542 168.881  0.00  0.00    +0.000 OA
ATOM      3  N1  UNL     1     149.831 163.011 169.480  0.00  0.00    +0.000 N 
ATOM      4  C10 UNL     1     149.676 163.783 168.270  0.00  0.00    +0.000 A 
ATOM      5  N2  UNL     1     150.693 163.888 167.426  0.00  0.00    +0.000 NA
ATOM      6  C11 UNL     1     150.596 164.596 166.288  0.00  0.00    +0.000 A 
ATOM      7  C12 UNL     1     149.445 165.233 165.958  0.00  0.00    +0.000 A 
ATOM      8  C13 UNL     1     148.355 165.149 166.815  0.00  0.00    +0.000 A 
ATOM      9  C14 UNL     1     147.186 165.802 166.470  0.00  0.00    +0.000 A 
ATOM     10  C15 UNL     1     146.098 165.733 167.300  0.00  0.00    +0.000 A 
ATOM     11  C16 UNL     1     146.214 165.003 168.464  0.00  0.00    +0.000 A 
ATOM     12  C17 UNL     1     147.400 164.344 168.806  0.00  0.00    +0.000 A 
ATOM     13  C18 UNL     1     148.494 164.415 167.970  0.00  0.00    +0.000 A 
ATOM     14  H10 UNL     1     149.067 162.911 170.150  0.00  0.00    +0.000 HD
ENDROOT
BRANCH   1  22
ATOM     15  C1  UNL     1     150.637 159.437 169.835  0.00  0.00    +0.000 C 
ATOM     16  C2  UNL     1     151.170 160.225 170.974  0.00  0.00    +0.000 A 
ATOM     17  C3  UNL     1     151.491 159.556 172.170  0.00  0.00    +0.000 A 
ATOM     18  C4  UNL     1     152.036 160.170 173.260  0.00  0.00    +0.000 A 
ATOM     19  C5  UNL     1     152.277 161.521 173.165  0.00  0.00    +0.000 A 
ATOM     20  C6  UNL     1     151.974 162.215 172.004  0.00  0.00    +0.000 A 
ATOM     21  C7  UNL     1     152.224 163.674 171.909  0.00  0.00    +0.000 C 
ATOM     22  C8  UNL     1     151.413 161.567 170.893  0.00  0.00    +0.000 A 
ENDBRANCH   1  22
BRANCH   6  23
ATOM     23  C19 UNL     1     151.767 164.655 165.420  0.00  0.00    +0.000 A 
ATOM     24  C20 UNL     1     152.743 165.613 165.523  0.00  0.00    +0.000 A 
ATOM     25  C21 UNL     1     153.839 165.632 164.677  0.00  0.00    +0.000 A 
ATOM     26  C22 UNL     1     153.995 164.682 163.691  0.00  0.00    +0.000 A 
ATOM     27  C23 UNL     1     153.000 163.729 163.608  0.00  0.00    +0.000 A 
ATOM     28  N3  UNL     1     151.950 163.731 164.436  0.00  0.00    +0.000 NA
ENDBRANCH   6  23
TORSDOF 2
ENDMDL
MODEL 9
REMARK VINA RESULT:      -6.4      2.439      7.372
REMARK  Name = ./3D_structures\o36_MMV1581558_3D.pdb
REMARK  4 active torsions:
REMARK  status: ('A' for Active; 'I' for Inactive)
REMARK    1  A    between atoms: C1_1  and  C2_2
REMARK    2  A    between atoms: C6_6  and  C7_7
REMARK    3  A    between atoms: C8_8  and  C9_9
REMARK    4  A    between atoms: C11_14  and  C19_22
REMARK                            x       y       z     vdW  Elec       q    Type
REMARK                         _______ _______ _______ _____ _____    ______ ____
ROOT
ATOM      1  C9  UNL     1     157.355 151.881 163.501  0.00  0.00    +0.000 C 
ATOM      2  O1  UNL     1     156.897 152.469 164.556  0.00  0.00    +0.000 OA
ATOM      3  N1  UNL     1     157.945 152.742 162.537  0.00  0.00    +0.000 N 
ATOM      4  C10 UNL     1     158.010 154.164 162.777  0.00  0.00    +0.000 A 
ATOM      5  N2  UNL     1     157.515 154.660 163.902  0.00  0.00    +0.000 NA
ATOM      6  C11 UNL     1     157.554 155.977 164.170  0.00  0.00    +0.000 A 
ATOM      7  C12 UNL     1     158.104 156.852 163.292  0.00  0.00    +0.000 A 
ATOM      8  C13 UNL     1     158.632 156.373 162.100  0.00  0.00    +0.000 A 
ATOM      9  C14 UNL     1     159.190 157.273 161.211  0.00  0.00    +0.000 A 
ATOM     10  C15 UNL     1     159.719 156.823 160.029  0.00  0.00    +0.000 A 
ATOM     11  C16 UNL     1     159.672 155.470 159.770  0.00  0.00    +0.000 A 
ATOM     12  C17 UNL     1     159.106 154.565 160.674  0.00  0.00    +0.000 A 
ATOM     13  C18 UNL     1     158.574 155.019 161.863  0.00  0.00    +0.000 A 
ATOM     14  H10 UNL     1     158.316 152.327 161.681  0.00  0.00    +0.000 HD
ENDROOT
BRANCH   1  22
ATOM     15  C1  UNL     1     158.945 150.038 165.192  0.00  0.00    +0.000 C 
ATOM     16  C2  UNL     1     157.960 149.590 164.174  0.00  0.00    +0.000 A 
ATOM     17  C3  UNL     1     157.762 148.209 163.985  0.00  0.00    +0.000 A 
ATOM     18  C4  UNL     1     156.848 147.687 163.118  0.00  0.00    +0.000 A 
ATOM     19  C5  UNL     1     156.086 148.576 162.396  0.00  0.00    +0.000 A 
ATOM     20  C6  UNL     1     156.252 149.943 162.554  0.00  0.00    +0.000 A 
ATOM     21  C7  UNL     1     155.437 150.900 161.766  0.00  0.00    +0.000 C 
ATOM     22  C8  UNL     1     157.198 150.463 163.451  0.00  0.00    +0.000 A 
ENDBRANCH   1  22
BRANCH   6  23
ATOM     23  C19 UNL     1     156.985 156.433 165.434  0.00  0.00    +0.000 A 
ATOM     24  C20 UNL     1     157.659 156.398 166.628  0.00  0.00    +0.000 A 
ATOM     25  C21 UNL     1     157.081 156.841 167.806  0.00  0.00    +0.000 A 
ATOM     26  C22 UNL     1     155.796 157.339 167.825  0.00  0.00    +0.000 A 
ATOM     27  C23 UNL     1     155.139 157.364 166.611  0.00  0.00    +0.000 A 
ATOM     28  N3  UNL     1     155.718 156.930 165.487  0.00  0.00    +0.000 NA
ENDBRANCH   6  23
TORSDOF 2
ENDMDL
