MODEL 1
REMARK VINA RESULT:      -7.8      0.000      0.000
REMARK  Name = ./3D_structures\o3_MMV1634391_3D.pdb
REMARK  12 active torsions:
REMARK  status: ('A' for Active; 'I' for Inactive)
REMARK    1  A    between atoms: C1_2  and  C20_30
REMARK    2  A    between atoms: N1_3  and  C2_4
REMARK    3  A    between atoms: N2_6  and  C4_7
REMARK    4  A    between atoms: C5_8  and  C7_10
REMARK    5  A    between atoms: N3_12  and  C8_13
REMARK    6  A    between atoms: N4_15  and  C10_16
REMARK    7  A    between atoms: C11_17  and  C13_19
REMARK    8  A    between atoms: N5_21  and  C14_22
REMARK    9  A    between atoms: C14_22  and  C15_23
REMARK   10  A    between atoms: C15_23  and  N6_24
REMARK   11  A    between atoms: C23_33  and  C24_34
REMARK   12  A    between atoms: C25_35  and  C26_36
REMARK                            x       y       z     vdW  Elec       q    Type
REMARK                         _______ _______ _______ _____ _____    ______ ____
ROOT
ATOM      1  C2  UNL     1     157.828 155.528 164.937  0.00  0.00    +0.000 A 
ATOM      2  C3  UNL     1     159.152 155.782 164.688  0.00  0.00    +0.000 A 
ATOM      3  N2  UNL     1     159.834 154.637 164.400  0.00  0.00    +0.000 N 
ATOM      4  C4  UNL     1     161.274 154.598 164.116  0.00  0.00    +0.000 C 
ATOM      5  C5  UNL     1     158.954 153.644 164.461  0.00  0.00    +0.000 A 
ATOM      6  C6  UNL     1     157.693 154.171 164.798  0.00  0.00    +0.000 A 
ENDROOT
BRANCH   1   9
ATOM      7  O1  UNL     1     157.125 156.481 167.506  0.00  0.00    +0.000 OA
ATOM      8  C1  UNL     1     156.434 156.903 166.527  0.00  0.00    +0.000 C 
ATOM      9  N1  UNL     1     156.776 156.425 165.248  0.00  0.00    +0.000 N 
ATOM     10  H1  UNL     1     156.180 156.782 164.452  0.00  0.00    +0.000 HD
BRANCH   8  11
ATOM     11  C20 UNL     1     155.355 157.840 166.790  0.00  0.00    +0.000 A 
ATOM     12  C21 UNL     1     154.975 158.798 165.892  0.00  0.00    +0.000 A 
ATOM     13  C22 UNL     1     153.957 159.693 166.245  0.00  0.00    +0.000 A 
ATOM     14  C23 UNL     1     153.330 159.636 167.470  0.00  0.00    +0.000 A 
ATOM     15  C35 UNL     1     153.711 158.682 168.354  0.00  0.00    +0.000 A 
ATOM     16  C36 UNL     1     154.724 157.786 168.012  0.00  0.00    +0.000 A 
BRANCH  14  17
ATOM     17  C24 UNL     1     152.312 160.631 167.763  0.00  0.00    +0.000 C 
ATOM     18  C25 UNL     1     151.167 160.406 168.356  0.00  0.00    +0.000 C 
BRANCH  18  19
ATOM     19  C26 UNL     1     150.150 161.404 168.652  0.00  0.00    +0.000 A 
ATOM     20  C27 UNL     1     150.390 162.610 169.269  0.00  0.00    +0.000 A 
ATOM     21  C28 UNL     1     149.356 163.505 169.554  0.00  0.00    +0.000 A 
ATOM     22  C29 UNL     1     149.597 164.707 170.177  0.00  0.00    +0.000 A 
ATOM     23  C30 UNL     1     148.568 165.578 170.459  0.00  0.00    +0.000 A 
ATOM     24  C31 UNL     1     147.239 165.280 170.126  0.00  0.00    +0.000 A 
ATOM     25  C32 UNL     1     147.030 164.062 169.501  0.00  0.00    +0.000 A 
ATOM     26  C33 UNL     1     148.066 163.184 169.217  0.00  0.00    +0.000 A 
ATOM     27  N7  UNL     1     147.822 162.004 168.612  0.00  0.00    +0.000 NA
ATOM     28  C34 UNL     1     148.824 161.139 168.335  0.00  0.00    +0.000 A 
ENDBRANCH  18  19
ENDBRANCH  14  17
ENDBRANCH   8  11
ENDBRANCH   1   9
BRANCH   5  29
ATOM     29  C7  UNL     1     159.145 152.220 164.171  0.00  0.00    +0.000 C 
ATOM     30  O2  UNL     1     159.492 151.865 163.019  0.00  0.00    +0.000 OA
ATOM     31  N3  UNL     1     158.951 151.251 165.171  0.00  0.00    +0.000 N 
ATOM     32  H7  UNL     1     158.679 151.504 166.149  0.00  0.00    +0.000 HD
BRANCH  31  33
ATOM     33  C8  UNL     1     159.129 149.850 164.925  0.00  0.00    +0.000 A 
ATOM     34  C9  UNL     1     158.323 148.963 164.277  0.00  0.00    +0.000 A 
ATOM     35  N4  UNL     1     158.920 147.732 164.259  0.00  0.00    +0.000 N 
ATOM     36  C10 UNL     1     158.303 146.574 163.640  0.00  0.00    +0.000 C 
ATOM     37  C11 UNL     1     160.102 147.823 164.891  0.00  0.00    +0.000 A 
ATOM     38  C12 UNL     1     160.251 149.115 165.310  0.00  0.00    +0.000 A 
BRANCH  37  39
ATOM     39  C13 UNL     1     161.060 146.715 165.073  0.00  0.00    +0.000 C 
ATOM     40  O3  UNL     1     161.967 146.539 164.239  0.00  0.00    +0.000 OA
ATOM     41  N5  UNL     1     160.934 145.859 166.204  0.00  0.00    +0.000 N 
ATOM     42  H13 UNL     1     160.128 146.078 166.862  0.00  0.00    +0.000 HD
BRANCH  41  43
ATOM     43  C14 UNL     1     161.840 144.766 166.442  0.00  0.00    +0.000 C 
BRANCH  43  44
ATOM     44  C15 UNL     1     161.655 144.105 167.764  0.00  0.00    +0.000 C 
BRANCH  44  45
ATOM     45  N6  UNL     1     161.252 145.053 168.801  0.00  0.00    +0.000 NA
ATOM     46  C16 UNL     1     160.239 144.464 169.650  0.00  0.00    +0.000 C 
ATOM     47  C17 UNL     1     159.706 145.475 170.652  0.00  0.00    +0.000 C 
ATOM     48  O4  UNL     1     160.739 146.320 171.071  0.00  0.00    +0.000 OA
ATOM     49  C18 UNL     1     161.973 145.641 171.013  0.00  0.00    +0.000 C 
ATOM     50  C19 UNL     1     162.395 145.416 169.587  0.00  0.00    +0.000 C 
ENDBRANCH  44  45
ENDBRANCH  43  44
ENDBRANCH  41  43
ENDBRANCH  37  39
ENDBRANCH  31  33
ENDBRANCH   5  29
TORSDOF 10
ENDMDL
MODEL 2
REMARK VINA RESULT:      -7.7      2.586      3.923
REMARK  Name = ./3D_structures\o3_MMV1634391_3D.pdb
REMARK  12 active torsions:
REMARK  status: ('A' for Active; 'I' for Inactive)
REMARK    1  A    between atoms: C1_2  and  C20_30
REMARK    2  A    between atoms: N1_3  and  C2_4
REMARK    3  A    between atoms: N2_6  and  C4_7
REMARK    4  A    between atoms: C5_8  and  C7_10
REMARK    5  A    between atoms: N3_12  and  C8_13
REMARK    6  A    between atoms: N4_15  and  C10_16
REMARK    7  A    between atoms: C11_17  and  C13_19
REMARK    8  A    between atoms: N5_21  and  C14_22
REMARK    9  A    between atoms: C14_22  and  C15_23
REMARK   10  A    between atoms: C15_23  and  N6_24
REMARK   11  A    between atoms: C23_33  and  C24_34
REMARK   12  A    between atoms: C25_35  and  C26_36
REMARK                            x       y       z     vdW  Elec       q    Type
REMARK                         _______ _______ _______ _____ _____    ______ ____
ROOT
ATOM      1  C2  UNL     1     158.250 153.164 163.981  0.00  0.00    +0.000 A 
ATOM      2  C3  UNL     1     158.835 152.729 162.820  0.00  0.00    +0.000 A 
ATOM      3  N2  UNL     1     159.459 151.530 162.994  0.00  0.00    +0.000 N 
ATOM      4  C4  UNL     1     160.193 150.833 161.930  0.00  0.00    +0.000 C 
ATOM      5  C5  UNL     1     159.279 151.188 164.265  0.00  0.00    +0.000 A 
ATOM      6  C6  UNL     1     158.530 152.192 164.906  0.00  0.00    +0.000 A 
ENDROOT
BRANCH   1   9
ATOM      7  O1  UNL     1     159.167 155.547 165.198  0.00  0.00    +0.000 OA
ATOM      8  C1  UNL     1     157.951 155.520 164.829  0.00  0.00    +0.000 C 
ATOM      9  N1  UNL     1     157.489 154.333 164.230  0.00  0.00    +0.000 N 
ATOM     10  H1  UNL     1     156.473 154.332 163.942  0.00  0.00    +0.000 HD
BRANCH   8  11
ATOM     11  C20 UNL     1     157.134 156.702 165.045  0.00  0.00    +0.000 A 
ATOM     12  C21 UNL     1     155.965 156.671 165.753  0.00  0.00    +0.000 A 
ATOM     13  C22 UNL     1     155.212 157.846 165.872  0.00  0.00    +0.000 A 
ATOM     14  C23 UNL     1     155.618 159.031 165.297  0.00  0.00    +0.000 A 
ATOM     15  C35 UNL     1     156.778 159.054 164.599  0.00  0.00    +0.000 A 
ATOM     16  C36 UNL     1     157.535 157.888 164.474  0.00  0.00    +0.000 A 
BRANCH  14  17
ATOM     17  C24 UNL     1     154.753 160.190 165.441  0.00  0.00    +0.000 C 
ATOM     18  C25 UNL     1     153.532 160.184 165.913  0.00  0.00    +0.000 C 
BRANCH  18  19
ATOM     19  C26 UNL     1     152.668 161.345 166.059  0.00  0.00    +0.000 A 
ATOM     20  C27 UNL     1     152.701 162.455 165.247  0.00  0.00    +0.000 A 
ATOM     21  C28 UNL     1     151.864 163.551 165.470  0.00  0.00    +0.000 A 
ATOM     22  C29 UNL     1     151.903 164.662 164.660  0.00  0.00    +0.000 A 
ATOM     23  C30 UNL     1     151.077 165.739 164.894  0.00  0.00    +0.000 A 
ATOM     24  C31 UNL     1     150.166 165.750 165.961  0.00  0.00    +0.000 A 
ATOM     25  C32 UNL     1     150.152 164.617 166.756  0.00  0.00    +0.000 A 
ATOM     26  C33 UNL     1     150.984 163.532 166.521  0.00  0.00    +0.000 A 
ATOM     27  N7  UNL     1     150.944 162.448 167.322  0.00  0.00    +0.000 NA
ATOM     28  C34 UNL     1     151.755 161.387 167.104  0.00  0.00    +0.000 A 
ENDBRANCH  18  19
ENDBRANCH  14  17
ENDBRANCH   8  11
ENDBRANCH   1   9
BRANCH   5  29
ATOM     29  C7  UNL     1     159.684 149.964 164.959  0.00  0.00    +0.000 C 
ATOM     30  O2  UNL     1     158.828 149.081 165.209  0.00  0.00    +0.000 OA
ATOM     31  N3  UNL     1     161.022 149.763 165.342  0.00  0.00    +0.000 N 
ATOM     32  H7  UNL     1     161.772 150.463 165.137  0.00  0.00    +0.000 HD
BRANCH  31  33
ATOM     33  C8  UNL     1     161.457 148.578 166.020  0.00  0.00    +0.000 A 
ATOM     34  C9  UNL     1     161.894 147.389 165.517  0.00  0.00    +0.000 A 
ATOM     35  N4  UNL     1     162.234 146.556 166.547  0.00  0.00    +0.000 N 
ATOM     36  C10 UNL     1     162.734 145.210 166.331  0.00  0.00    +0.000 C 
ATOM     37  C11 UNL     1     162.020 147.200 167.706  0.00  0.00    +0.000 A 
ATOM     38  C12 UNL     1     161.540 148.444 167.407  0.00  0.00    +0.000 A 
BRANCH  37  39
ATOM     39  C13 UNL     1     162.278 146.648 169.050  0.00  0.00    +0.000 C 
ATOM     40  O3  UNL     1     163.393 146.807 169.580  0.00  0.00    +0.000 OA
ATOM     41  N5  UNL     1     161.245 145.940 169.728  0.00  0.00    +0.000 N 
ATOM     42  H13 UNL     1     160.326 145.847 169.200  0.00  0.00    +0.000 HD
BRANCH  41  43
ATOM     43  C14 UNL     1     161.431 145.384 171.042  0.00  0.00    +0.000 C 
BRANCH  43  44
ATOM     44  C15 UNL     1     161.580 143.903 171.057  0.00  0.00    +0.000 C 
BRANCH  44  45
ATOM     45  N6  UNL     1     162.239 143.404 169.851  0.00  0.00    +0.000 NA
ATOM     46  C16 UNL     1     163.452 142.697 170.199  0.00  0.00    +0.000 C 
ATOM     47  C17 UNL     1     164.225 142.286 168.957  0.00  0.00    +0.000 C 
ATOM     48  O4  UNL     1     163.334 141.937 167.936  0.00  0.00    +0.000 OA
ATOM     49  C18 UNL     1     162.141 141.432 168.489  0.00  0.00    +0.000 C 
ATOM     50  C19 UNL     1     161.348 142.527 169.148  0.00  0.00    +0.000 C 
ENDBRANCH  44  45
ENDBRANCH  43  44
ENDBRANCH  41  43
ENDBRANCH  37  39
ENDBRANCH  31  33
ENDBRANCH   5  29
TORSDOF 10
ENDMDL
MODEL 3
REMARK VINA RESULT:      -7.5      1.635      2.423
REMARK  Name = ./3D_structures\o3_MMV1634391_3D.pdb
REMARK  12 active torsions:
REMARK  status: ('A' for Active; 'I' for Inactive)
REMARK    1  A    between atoms: C1_2  and  C20_30
REMARK    2  A    between atoms: N1_3  and  C2_4
REMARK    3  A    between atoms: N2_6  and  C4_7
REMARK    4  A    between atoms: C5_8  and  C7_10
REMARK    5  A    between atoms: N3_12  and  C8_13
REMARK    6  A    between atoms: N4_15  and  C10_16
REMARK    7  A    between atoms: C11_17  and  C13_19
REMARK    8  A    between atoms: N5_21  and  C14_22
REMARK    9  A    between atoms: C14_22  and  C15_23
REMARK   10  A    between atoms: C15_23  and  N6_24
REMARK   11  A    between atoms: C23_33  and  C24_34
REMARK   12  A    between atoms: C25_35  and  C26_36
REMARK                            x       y       z     vdW  Elec       q    Type
REMARK                         _______ _______ _______ _____ _____    ______ ____
ROOT
ATOM      1  C2  UNL     1     157.644 156.142 165.000  0.00  0.00    +0.000 A 
ATOM      2  C3  UNL     1     158.993 156.350 164.865  0.00  0.00    +0.000 A 
ATOM      3  N2  UNL     1     159.644 155.200 164.529  0.00  0.00    +0.000 N 
ATOM      4  C4  UNL     1     161.098 155.114 164.341  0.00  0.00    +0.000 C 
ATOM      5  C5  UNL     1     158.719 154.250 164.445  0.00  0.00    +0.000 A 
ATOM      6  C6  UNL     1     157.462 154.810 164.737  0.00  0.00    +0.000 A 
ENDROOT
BRANCH   1   9
ATOM      7  O1  UNL     1     156.590 156.689 167.566  0.00  0.00    +0.000 OA
ATOM      8  C1  UNL     1     156.095 157.336 166.591  0.00  0.00    +0.000 C 
ATOM      9  N1  UNL     1     156.612 157.061 165.311  0.00  0.00    +0.000 N 
ATOM     10  H1  UNL     1     156.178 157.605 164.516  0.00  0.00    +0.000 HD
BRANCH   8  11
ATOM     11  C20 UNL     1     155.047 158.306 166.861  0.00  0.00    +0.000 A 
ATOM     12  C21 UNL     1     154.389 158.367 168.058  0.00  0.00    +0.000 A 
ATOM     13  C22 UNL     1     153.357 159.301 168.218  0.00  0.00    +0.000 A 
ATOM     14  C23 UNL     1     152.989 160.159 167.206  0.00  0.00    +0.000 A 
ATOM     15  C35 UNL     1     153.648 160.095 166.024  0.00  0.00    +0.000 A 
ATOM     16  C36 UNL     1     154.676 159.167 165.854  0.00  0.00    +0.000 A 
BRANCH  14  17
ATOM     17  C24 UNL     1     151.882 161.068 167.450  0.00  0.00    +0.000 C 
ATOM     18  C25 UNL     1     150.947 160.914 168.354  0.00  0.00    +0.000 C 
BRANCH  18  19
ATOM     19  C26 UNL     1     149.841 161.826 168.600  0.00  0.00    +0.000 A 
ATOM     20  C27 UNL     1     148.655 161.828 167.903  0.00  0.00    +0.000 A 
ATOM     21  C28 UNL     1     147.649 162.759 168.171  0.00  0.00    +0.000 A 
ATOM     22  C29 UNL     1     146.467 162.762 167.468  0.00  0.00    +0.000 A 
ATOM     23  C30 UNL     1     145.485 163.690 167.738  0.00  0.00    +0.000 A 
ATOM     24  C31 UNL     1     145.646 164.665 168.733  0.00  0.00    +0.000 A 
ATOM     25  C32 UNL     1     146.847 164.634 169.421  0.00  0.00    +0.000 A 
ATOM     26  C33 UNL     1     147.837 163.700 169.151  0.00  0.00    +0.000 A 
ATOM     27  N7  UNL     1     148.996 163.706 169.840  0.00  0.00    +0.000 NA
ATOM     28  C34 UNL     1     149.969 162.803 169.579  0.00  0.00    +0.000 A 
ENDBRANCH  18  19
ENDBRANCH  14  17
ENDBRANCH   8  11
ENDBRANCH   1   9
BRANCH   5  29
ATOM     29  C7  UNL     1     158.869 152.847 164.050  0.00  0.00    +0.000 C 
ATOM     30  O2  UNL     1     159.942 152.245 164.300  0.00  0.00    +0.000 OA
ATOM     31  N3  UNL     1     157.824 152.167 163.401  0.00  0.00    +0.000 N 
ATOM     32  H7  UNL     1     156.907 152.624 163.189  0.00  0.00    +0.000 HD
BRANCH  31  33
ATOM     33  C8  UNL     1     157.933 150.795 163.001  0.00  0.00    +0.000 A 
ATOM     34  C9  UNL     1     158.353 150.256 161.823  0.00  0.00    +0.000 A 
ATOM     35  N4  UNL     1     158.318 148.891 161.908  0.00  0.00    +0.000 N 
ATOM     36  C10 UNL     1     158.707 148.029 160.806  0.00  0.00    +0.000 C 
ATOM     37  C11 UNL     1     157.879 148.551 163.131  0.00  0.00    +0.000 A 
ATOM     38  C12 UNL     1     157.634 149.705 163.819  0.00  0.00    +0.000 A 
BRANCH  37  39
ATOM     39  C13 UNL     1     157.714 147.170 163.625  0.00  0.00    +0.000 C 
ATOM     40  O3  UNL     1     156.572 146.719 163.826  0.00  0.00    +0.000 OA
ATOM     41  N5  UNL     1     158.867 146.368 163.864  0.00  0.00    +0.000 N 
ATOM     42  H13 UNL     1     159.802 146.834 163.670  0.00  0.00    +0.000 HD
BRANCH  41  43
ATOM     43  C14 UNL     1     158.772 145.013 164.338  0.00  0.00    +0.000 C 
BRANCH  43  44
ATOM     44  C15 UNL     1     160.005 144.522 165.015  0.00  0.00    +0.000 C 
BRANCH  44  45
ATOM     45  N6  UNL     1     160.063 144.930 166.417  0.00  0.00    +0.000 NA
ATOM     46  C16 UNL     1     160.122 143.767 167.274  0.00  0.00    +0.000 C 
ATOM     47  C17 UNL     1     160.047 144.160 168.740  0.00  0.00    +0.000 C 
ATOM     48  O4  UNL     1     160.724 145.367 168.945  0.00  0.00    +0.000 OA
ATOM     49  C18 UNL     1     161.767 145.501 168.006  0.00  0.00    +0.000 C 
ATOM     50  C19 UNL     1     161.219 145.751 166.628  0.00  0.00    +0.000 C 
ENDBRANCH  44  45
ENDBRANCH  43  44
ENDBRANCH  41  43
ENDBRANCH  37  39
ENDBRANCH  31  33
ENDBRANCH   5  29
TORSDOF 10
ENDMDL
MODEL 4
REMARK VINA RESULT:      -7.4      1.402      1.867
REMARK  Name = ./3D_structures\o3_MMV1634391_3D.pdb
REMARK  12 active torsions:
REMARK  status: ('A' for Active; 'I' for Inactive)
REMARK    1  A    between atoms: C1_2  and  C20_30
REMARK    2  A    between atoms: N1_3  and  C2_4
REMARK    3  A    between atoms: N2_6  and  C4_7
REMARK    4  A    between atoms: C5_8  and  C7_10
REMARK    5  A    between atoms: N3_12  and  C8_13
REMARK    6  A    between atoms: N4_15  and  C10_16
REMARK    7  A    between atoms: C11_17  and  C13_19
REMARK    8  A    between atoms: N5_21  and  C14_22
REMARK    9  A    between atoms: C14_22  and  C15_23
REMARK   10  A    between atoms: C15_23  and  N6_24
REMARK   11  A    between atoms: C23_33  and  C24_34
REMARK   12  A    between atoms: C25_35  and  C26_36
REMARK                            x       y       z     vdW  Elec       q    Type
REMARK                         _______ _______ _______ _____ _____    ______ ____
ROOT
ATOM      1  C2  UNL     1     157.744 155.621 164.987  0.00  0.00    +0.000 A 
ATOM      2  C3  UNL     1     159.063 155.899 164.739  0.00  0.00    +0.000 A 
ATOM      3  N2  UNL     1     159.765 154.768 164.446  0.00  0.00    +0.000 N 
ATOM      4  C4  UNL     1     161.206 154.756 164.161  0.00  0.00    +0.000 C 
ATOM      5  C5  UNL     1     158.902 153.759 164.502  0.00  0.00    +0.000 A 
ATOM      6  C6  UNL     1     157.633 154.263 164.841  0.00  0.00    +0.000 A 
ENDROOT
BRANCH   1   9
ATOM      7  O1  UNL     1     157.042 156.572 167.557  0.00  0.00    +0.000 OA
ATOM      8  C1  UNL     1     156.334 156.975 166.581  0.00  0.00    +0.000 C 
ATOM      9  N1  UNL     1     156.676 156.497 165.301  0.00  0.00    +0.000 N 
ATOM     10  H1  UNL     1     156.066 156.838 164.509  0.00  0.00    +0.000 HD
BRANCH   8  11
ATOM     11  C20 UNL     1     155.239 157.891 166.849  0.00  0.00    +0.000 A 
ATOM     12  C21 UNL     1     154.818 158.822 165.941  0.00  0.00    +0.000 A 
ATOM     13  C22 UNL     1     153.786 159.700 166.297  0.00  0.00    +0.000 A 
ATOM     14  C23 UNL     1     153.184 159.650 167.535  0.00  0.00    +0.000 A 
ATOM     15  C35 UNL     1     153.605 158.723 168.429  0.00  0.00    +0.000 A 
ATOM     16  C36 UNL     1     154.633 157.845 168.083  0.00  0.00    +0.000 A 
BRANCH  14  17
ATOM     17  C24 UNL     1     152.149 160.626 167.830  0.00  0.00    +0.000 C 
ATOM     18  C25 UNL     1     151.865 161.112 169.013  0.00  0.00    +0.000 C 
BRANCH  18  19
ATOM     19  C26 UNL     1     150.831 162.091 169.307  0.00  0.00    +0.000 A 
ATOM     20  C27 UNL     1     149.542 162.038 168.829  0.00  0.00    +0.000 A 
ATOM     21  C28 UNL     1     148.610 163.036 169.125  0.00  0.00    +0.000 A 
ATOM     22  C29 UNL     1     147.323 162.984 168.642  0.00  0.00    +0.000 A 
ATOM     23  C30 UNL     1     146.415 163.978 168.935  0.00  0.00    +0.000 A 
ATOM     24  C31 UNL     1     146.760 165.078 169.734  0.00  0.00    +0.000 A 
ATOM     25  C32 UNL     1     148.062 165.100 170.204  0.00  0.00    +0.000 A 
ATOM     26  C33 UNL     1     148.978 164.099 169.909  0.00  0.00    +0.000 A 
ATOM     27  N7  UNL     1     150.239 164.159 170.381  0.00  0.00    +0.000 NA
ATOM     28  C34 UNL     1     151.140 163.192 170.095  0.00  0.00    +0.000 A 
ENDBRANCH  18  19
ENDBRANCH  14  17
ENDBRANCH   8  11
ENDBRANCH   1   9
BRANCH   5  29
ATOM     29  C7  UNL     1     159.119 152.341 164.206  0.00  0.00    +0.000 C 
ATOM     30  O2  UNL     1     159.501 151.999 163.060  0.00  0.00    +0.000 OA
ATOM     31  N3  UNL     1     158.910 151.360 165.191  0.00  0.00    +0.000 N 
ATOM     32  H7  UNL     1     158.609 151.601 166.164  0.00  0.00    +0.000 HD
BRANCH  31  33
ATOM     33  C8  UNL     1     159.112 149.963 164.939  0.00  0.00    +0.000 A 
ATOM     34  C9  UNL     1     158.325 149.068 164.281  0.00  0.00    +0.000 A 
ATOM     35  N4  UNL     1     158.941 147.847 164.260  0.00  0.00    +0.000 N 
ATOM     36  C10 UNL     1     158.347 146.682 163.630  0.00  0.00    +0.000 C 
ATOM     37  C11 UNL     1     160.117 147.952 164.900  0.00  0.00    +0.000 A 
ATOM     38  C12 UNL     1     160.243 149.244 165.328  0.00  0.00    +0.000 A 
BRANCH  37  39
ATOM     39  C13 UNL     1     161.091 146.858 165.082  0.00  0.00    +0.000 C 
ATOM     40  O3  UNL     1     161.866 146.560 164.156  0.00  0.00    +0.000 OA
ATOM     41  N5  UNL     1     161.132 146.156 166.321  0.00  0.00    +0.000 N 
ATOM     42  H13 UNL     1     160.432 146.473 167.056  0.00  0.00    +0.000 HD
BRANCH  41  43
ATOM     43  C14 UNL     1     162.063 145.086 166.564  0.00  0.00    +0.000 C 
BRANCH  43  44
ATOM     44  C15 UNL     1     161.473 143.924 167.286  0.00  0.00    +0.000 C 
BRANCH  44  45
ATOM     45  N6  UNL     1     162.450 143.254 168.142  0.00  0.00    +0.000 NA
ATOM     46  C16 UNL     1     161.926 143.112 169.483  0.00  0.00    +0.000 C 
ATOM     47  C17 UNL     1     162.973 142.541 170.425  0.00  0.00    +0.000 C 
ATOM     48  O4  UNL     1     163.763 141.606 169.747  0.00  0.00    +0.000 OA
ATOM     49  C18 UNL     1     163.016 140.996 168.720  0.00  0.00    +0.000 C 
ATOM     50  C19 UNL     1     162.756 141.963 167.598  0.00  0.00    +0.000 C 
ENDBRANCH  44  45
ENDBRANCH  43  44
ENDBRANCH  41  43
ENDBRANCH  37  39
ENDBRANCH  31  33
ENDBRANCH   5  29
TORSDOF 10
ENDMDL
MODEL 5
REMARK VINA RESULT:      -7.3      6.939      9.509
REMARK  Name = ./3D_structures\o3_MMV1634391_3D.pdb
REMARK  12 active torsions:
REMARK  status: ('A' for Active; 'I' for Inactive)
REMARK    1  A    between atoms: C1_2  and  C20_30
REMARK    2  A    between atoms: N1_3  and  C2_4
REMARK    3  A    between atoms: N2_6  and  C4_7
REMARK    4  A    between atoms: C5_8  and  C7_10
REMARK    5  A    between atoms: N3_12  and  C8_13
REMARK    6  A    between atoms: N4_15  and  C10_16
REMARK    7  A    between atoms: C11_17  and  C13_19
REMARK    8  A    between atoms: N5_21  and  C14_22
REMARK    9  A    between atoms: C14_22  and  C15_23
REMARK   10  A    between atoms: C15_23  and  N6_24
REMARK   11  A    between atoms: C23_33  and  C24_34
REMARK   12  A    between atoms: C25_35  and  C26_36
REMARK                            x       y       z     vdW  Elec       q    Type
REMARK                         _______ _______ _______ _____ _____    ______ ____
ROOT
ATOM      1  C2  UNL     1     158.625 152.900 163.847  0.00  0.00    +0.000 A 
ATOM      2  C3  UNL     1     159.294 152.628 162.681  0.00  0.00    +0.000 A 
ATOM      3  N2  UNL     1     158.767 151.544 162.044  0.00  0.00    +0.000 N 
ATOM      4  C4  UNL     1     159.296 151.005 160.785  0.00  0.00    +0.000 C 
ATOM      5  C5  UNL     1     157.759 151.114 162.795  0.00  0.00    +0.000 A 
ATOM      6  C6  UNL     1     157.649 151.941 163.928  0.00  0.00    +0.000 A 
ENDROOT
BRANCH   1   9
ATOM      7  O1  UNL     1     157.459 155.476 163.793  0.00  0.00    +0.000 OA
ATOM      8  C1  UNL     1     158.240 155.218 164.761  0.00  0.00    +0.000 C 
ATOM      9  N1  UNL     1     158.828 153.939 164.788  0.00  0.00    +0.000 N 
ATOM     10  H1  UNL     1     159.481 153.753 165.597  0.00  0.00    +0.000 HD
BRANCH   8  11
ATOM     11  C20 UNL     1     158.465 156.245 165.764  0.00  0.00    +0.000 A 
ATOM     12  C21 UNL     1     157.542 156.551 166.726  0.00  0.00    +0.000 A 
ATOM     13  C22 UNL     1     157.819 157.589 167.625  0.00  0.00    +0.000 A 
ATOM     14  C23 UNL     1     158.994 158.306 167.569  0.00  0.00    +0.000 A 
ATOM     15  C35 UNL     1     159.904 157.995 166.615  0.00  0.00    +0.000 A 
ATOM     16  C36 UNL     1     159.637 156.964 165.714  0.00  0.00    +0.000 A 
BRANCH  14  17
ATOM     17  C24 UNL     1     159.177 159.390 168.519  0.00  0.00    +0.000 C 
ATOM     18  C25 UNL     1     159.733 160.548 168.265  0.00  0.00    +0.000 C 
BRANCH  18  19
ATOM     19  C26 UNL     1     159.913 161.634 169.216  0.00  0.00    +0.000 A 
ATOM     20  C27 UNL     1     161.121 162.218 169.521  0.00  0.00    +0.000 A 
ATOM     21  C28 UNL     1     161.224 163.235 170.474  0.00  0.00    +0.000 A 
ATOM     22  C29 UNL     1     162.433 163.812 170.782  0.00  0.00    +0.000 A 
ATOM     23  C30 UNL     1     162.522 164.810 171.728  0.00  0.00    +0.000 A 
ATOM     24  C31 UNL     1     161.392 165.277 172.414  0.00  0.00    +0.000 A 
ATOM     25  C32 UNL     1     160.190 164.674 172.081  0.00  0.00    +0.000 A 
ATOM     26  C33 UNL     1     160.100 163.669 171.128  0.00  0.00    +0.000 A 
ATOM     27  N7  UNL     1     158.911 163.103 170.835  0.00  0.00    +0.000 NA
ATOM     28  C34 UNL     1     158.814 162.120 169.912  0.00  0.00    +0.000 A 
ENDBRANCH  18  19
ENDBRANCH  14  17
ENDBRANCH   8  11
ENDBRANCH   1   9
BRANCH   5  29
ATOM     29  C7  UNL     1     156.814 150.024 162.537  0.00  0.00    +0.000 C 
ATOM     30  O2  UNL     1     156.421 149.308 163.491  0.00  0.00    +0.000 OA
ATOM     31  N3  UNL     1     156.338 149.776 161.238  0.00  0.00    +0.000 N 
ATOM     32  H7  UNL     1     156.625 150.359 160.418  0.00  0.00    +0.000 HD
BRANCH  31  33
ATOM     33  C8  UNL     1     155.413 148.720 160.948  0.00  0.00    +0.000 A 
ATOM     34  C9  UNL     1     155.628 147.384 160.796  0.00  0.00    +0.000 A 
ATOM     35  N4  UNL     1     154.436 146.755 160.557  0.00  0.00    +0.000 N 
ATOM     36  C10 UNL     1     154.337 145.322 160.349  0.00  0.00    +0.000 C 
ATOM     37  C11 UNL     1     153.460 147.678 160.555  0.00  0.00    +0.000 A 
ATOM     38  C12 UNL     1     154.038 148.893 160.791  0.00  0.00    +0.000 A 
BRANCH  37  39
ATOM     39  C13 UNL     1     152.026 147.402 160.348  0.00  0.00    +0.000 C 
ATOM     40  O3  UNL     1     151.474 147.761 159.291  0.00  0.00    +0.000 OA
ATOM     41  N5  UNL     1     151.288 146.725 161.361  0.00  0.00    +0.000 N 
ATOM     42  H13 UNL     1     151.837 146.458 162.232  0.00  0.00    +0.000 HD
BRANCH  41  43
ATOM     43  C14 UNL     1     149.889 146.420 161.216  0.00  0.00    +0.000 C 
BRANCH  43  44
ATOM     44  C15 UNL     1     149.584 144.962 161.225  0.00  0.00    +0.000 C 
BRANCH  44  45
ATOM     45  N6  UNL     1     150.412 144.221 160.276  0.00  0.00    +0.000 NA
ATOM     46  C16 UNL     1     151.076 143.122 160.944  0.00  0.00    +0.000 C 
ATOM     47  C17 UNL     1     152.047 142.418 160.011  0.00  0.00    +0.000 C 
ATOM     48  O4  UNL     1     151.528 142.397 158.711  0.00  0.00    +0.000 OA
ATOM     49  C18 UNL     1     150.120 142.389 158.754  0.00  0.00    +0.000 C 
ATOM     50  C19 UNL     1     149.589 143.720 159.214  0.00  0.00    +0.000 C 
ENDBRANCH  44  45
ENDBRANCH  43  44
ENDBRANCH  41  43
ENDBRANCH  37  39
ENDBRANCH  31  33
ENDBRANCH   5  29
TORSDOF 10
ENDMDL
MODEL 6
REMARK VINA RESULT:      -7.3      3.555      4.456
REMARK  Name = ./3D_structures\o3_MMV1634391_3D.pdb
REMARK  12 active torsions:
REMARK  status: ('A' for Active; 'I' for Inactive)
REMARK    1  A    between atoms: C1_2  and  C20_30
REMARK    2  A    between atoms: N1_3  and  C2_4
REMARK    3  A    between atoms: N2_6  and  C4_7
REMARK    4  A    between atoms: C5_8  and  C7_10
REMARK    5  A    between atoms: N3_12  and  C8_13
REMARK    6  A    between atoms: N4_15  and  C10_16
REMARK    7  A    between atoms: C11_17  and  C13_19
REMARK    8  A    between atoms: N5_21  and  C14_22
REMARK    9  A    between atoms: C14_22  and  C15_23
REMARK   10  A    between atoms: C15_23  and  N6_24
REMARK   11  A    between atoms: C23_33  and  C24_34
REMARK   12  A    between atoms: C25_35  and  C26_36
REMARK                            x       y       z     vdW  Elec       q    Type
REMARK                         _______ _______ _______ _____ _____    ______ ____
ROOT
ATOM      1  C2  UNL     1     157.622 152.437 163.266  0.00  0.00    +0.000 A 
ATOM      2  C3  UNL     1     158.210 152.055 162.089  0.00  0.00    +0.000 A 
ATOM      3  N2  UNL     1     158.454 150.714 162.065  0.00  0.00    +0.000 N 
ATOM      4  C4  UNL     1     159.100 150.025 160.940  0.00  0.00    +0.000 C 
ATOM      5  C5  UNL     1     158.024 150.228 163.224  0.00  0.00    +0.000 A 
ATOM      6  C6  UNL     1     157.502 151.282 163.995  0.00  0.00    +0.000 A 
ENDROOT
BRANCH   1   9
ATOM      7  O1  UNL     1     159.197 154.437 164.498  0.00  0.00    +0.000 OA
ATOM      8  C1  UNL     1     157.974 154.713 164.294  0.00  0.00    +0.000 C 
ATOM      9  N1  UNL     1     157.185 153.717 163.688  0.00  0.00    +0.000 N 
ATOM     10  H1  UNL     1     156.169 153.967 163.539  0.00  0.00    +0.000 HD
BRANCH   8  11
ATOM     11  C20 UNL     1     157.481 156.021 164.690  0.00  0.00    +0.000 A 
ATOM     12  C21 UNL     1     156.394 156.185 165.504  0.00  0.00    +0.000 A 
ATOM     13  C22 UNL     1     155.956 157.482 165.798  0.00  0.00    +0.000 A 
ATOM     14  C23 UNL     1     156.589 158.596 165.292  0.00  0.00    +0.000 A 
ATOM     15  C35 UNL     1     157.667 158.426 164.489  0.00  0.00    +0.000 A 
ATOM     16  C36 UNL     1     158.111 157.137 164.190  0.00  0.00    +0.000 A 
BRANCH  14  17
ATOM     17  C24 UNL     1     156.040 159.900 165.620  0.00  0.00    +0.000 C 
ATOM     18  C25 UNL     1     155.205 160.590 164.884  0.00  0.00    +0.000 C 
BRANCH  18  19
ATOM     19  C26 UNL     1     154.653 161.895 165.214  0.00  0.00    +0.000 A 
ATOM     20  C27 UNL     1     153.558 162.461 164.604  0.00  0.00    +0.000 A 
ATOM     21  C28 UNL     1     153.105 163.736 164.950  0.00  0.00    +0.000 A 
ATOM     22  C29 UNL     1     152.013 164.303 164.334  0.00  0.00    +0.000 A 
ATOM     23  C30 UNL     1     151.580 165.564 164.679  0.00  0.00    +0.000 A 
ATOM     24  C31 UNL     1     152.229 166.321 165.666  0.00  0.00    +0.000 A 
ATOM     25  C32 UNL     1     153.325 165.722 166.265  0.00  0.00    +0.000 A 
ATOM     26  C33 UNL     1     153.761 164.452 165.918  0.00  0.00    +0.000 A 
ATOM     27  N7  UNL     1     154.836 163.905 166.521  0.00  0.00    +0.000 NA
ATOM     28  C34 UNL     1     155.272 162.669 166.186  0.00  0.00    +0.000 A 
ENDBRANCH  18  19
ENDBRANCH  14  17
ENDBRANCH   8  11
ENDBRANCH   1   9
BRANCH   5  29
ATOM     29  C7  UNL     1     157.985 148.838 163.686  0.00  0.00    +0.000 C 
ATOM     30  O2  UNL     1     156.916 148.369 164.148  0.00  0.00    +0.000 OA
ATOM     31  N3  UNL     1     159.128 148.022 163.610  0.00  0.00    +0.000 N 
ATOM     32  H7  UNL     1     160.034 148.366 163.216  0.00  0.00    +0.000 HD
BRANCH  31  33
ATOM     33  C8  UNL     1     159.128 146.658 164.051  0.00  0.00    +0.000 A 
ATOM     34  C9  UNL     1     158.424 145.587 163.588  0.00  0.00    +0.000 A 
ATOM     35  N4  UNL     1     158.773 144.471 164.297  0.00  0.00    +0.000 N 
ATOM     36  C10 UNL     1     158.190 143.167 164.039  0.00  0.00    +0.000 C 
ATOM     37  C11 UNL     1     159.694 144.818 165.211  0.00  0.00    +0.000 A 
ATOM     38  C12 UNL     1     159.927 146.158 165.079  0.00  0.00    +0.000 A 
BRANCH  37  39
ATOM     39  C13 UNL     1     160.338 143.895 166.166  0.00  0.00    +0.000 C 
ATOM     40  O3  UNL     1     161.069 142.980 165.744  0.00  0.00    +0.000 OA
ATOM     41  N5  UNL     1     160.116 144.065 167.563  0.00  0.00    +0.000 N 
ATOM     42  H13 UNL     1     159.475 144.868 167.835  0.00  0.00    +0.000 HD
BRANCH  41  43
ATOM     43  C14 UNL     1     160.720 143.204 168.545  0.00  0.00    +0.000 C 
BRANCH  43  44
ATOM     44  C15 UNL     1     161.749 143.875 169.387  0.00  0.00    +0.000 C 
BRANCH  44  45
ATOM     45  N6  UNL     1     161.324 144.001 170.779  0.00  0.00    +0.000 NA
ATOM     46  C16 UNL     1     162.298 143.386 171.656  0.00  0.00    +0.000 C 
ATOM     47  C17 UNL     1     161.815 143.383 173.097  0.00  0.00    +0.000 C 
ATOM     48  O4  UNL     1     161.095 144.554 173.360  0.00  0.00    +0.000 OA
ATOM     49  C18 UNL     1     161.566 145.604 172.548  0.00  0.00    +0.000 C 
ATOM     50  C19 UNL     1     161.176 145.388 171.111  0.00  0.00    +0.000 C 
ENDBRANCH  44  45
ENDBRANCH  43  44
ENDBRANCH  41  43
ENDBRANCH  37  39
ENDBRANCH  31  33
ENDBRANCH   5  29
TORSDOF 10
ENDMDL
MODEL 7
REMARK VINA RESULT:      -7.2      4.380      5.985
REMARK  Name = ./3D_structures\o3_MMV1634391_3D.pdb
REMARK  12 active torsions:
REMARK  status: ('A' for Active; 'I' for Inactive)
REMARK    1  A    between atoms: C1_2  and  C20_30
REMARK    2  A    between atoms: N1_3  and  C2_4
REMARK    3  A    between atoms: N2_6  and  C4_7
REMARK    4  A    between atoms: C5_8  and  C7_10
REMARK    5  A    between atoms: N3_12  and  C8_13
REMARK    6  A    between atoms: N4_15  and  C10_16
REMARK    7  A    between atoms: C11_17  and  C13_19
REMARK    8  A    between atoms: N5_21  and  C14_22
REMARK    9  A    between atoms: C14_22  and  C15_23
REMARK   10  A    between atoms: C15_23  and  N6_24
REMARK   11  A    between atoms: C23_33  and  C24_34
REMARK   12  A    between atoms: C25_35  and  C26_36
REMARK                            x       y       z     vdW  Elec       q    Type
REMARK                         _______ _______ _______ _____ _____    ______ ____
ROOT
ATOM      1  C2  UNL     1     158.013 155.559 164.740  0.00  0.00    +0.000 A 
ATOM      2  C3  UNL     1     157.959 154.207 164.524  0.00  0.00    +0.000 A 
ATOM      3  N2  UNL     1     159.189 153.699 164.228  0.00  0.00    +0.000 N 
ATOM      4  C4  UNL     1     159.433 152.282 163.925  0.00  0.00    +0.000 C 
ATOM      5  C5  UNL     1     160.039 154.720 164.253  0.00  0.00    +0.000 A 
ATOM      6  C6  UNL     1     159.331 155.894 164.567  0.00  0.00    +0.000 A 
ENDROOT
BRANCH   1   9
ATOM      7  O1  UNL     1     157.340 156.415 167.350  0.00  0.00    +0.000 OA
ATOM      8  C1  UNL     1     156.654 156.893 166.394  0.00  0.00    +0.000 C 
ATOM      9  N1  UNL     1     156.981 156.463 165.093  0.00  0.00    +0.000 N 
ATOM     10  H1  UNL     1     156.390 156.866 164.317  0.00  0.00    +0.000 HD
BRANCH   8  11
ATOM     11  C20 UNL     1     155.596 157.840 166.702  0.00  0.00    +0.000 A 
ATOM     12  C21 UNL     1     154.831 157.749 167.832  0.00  0.00    +0.000 A 
ATOM     13  C22 UNL     1     153.800 158.676 168.029  0.00  0.00    +0.000 A 
ATOM     14  C23 UNL     1     153.536 159.675 167.118  0.00  0.00    +0.000 A 
ATOM     15  C35 UNL     1     154.300 159.760 166.003  0.00  0.00    +0.000 A 
ATOM     16  C36 UNL     1     155.330 158.841 165.797  0.00  0.00    +0.000 A 
BRANCH  14  17
ATOM     17  C24 UNL     1     152.421 160.567 167.388  0.00  0.00    +0.000 C 
ATOM     18  C25 UNL     1     151.525 160.413 168.330  0.00  0.00    +0.000 C 
BRANCH  18  19
ATOM     19  C26 UNL     1     150.410 161.309 168.601  0.00  0.00    +0.000 A 
ATOM     20  C27 UNL     1     150.524 162.547 169.189  0.00  0.00    +0.000 A 
ATOM     21  C28 UNL     1     149.403 163.339 169.451  0.00  0.00    +0.000 A 
ATOM     22  C29 UNL     1     149.519 164.575 170.044  0.00  0.00    +0.000 A 
ATOM     23  C30 UNL     1     148.405 165.342 170.304  0.00  0.00    +0.000 A 
ATOM     24  C31 UNL     1     147.114 164.902 169.979  0.00  0.00    +0.000 A 
ATOM     25  C32 UNL     1     147.033 163.654 169.384  0.00  0.00    +0.000 A 
ATOM     26  C33 UNL     1     148.154 162.879 169.122  0.00  0.00    +0.000 A 
ATOM     27  N7  UNL     1     148.033 161.667 168.546  0.00  0.00    +0.000 NA
ATOM     28  C34 UNL     1     149.120 160.902 168.290  0.00  0.00    +0.000 A 
ENDBRANCH  18  19
ENDBRANCH  14  17
ENDBRANCH   8  11
ENDBRANCH   1   9
BRANCH   5  29
ATOM     29  C7  UNL     1     161.493 154.717 164.073  0.00  0.00    +0.000 C 
ATOM     30  O2  UNL     1     161.974 154.527 162.930  0.00  0.00    +0.000 OA
ATOM     31  N3  UNL     1     162.353 154.931 165.164  0.00  0.00    +0.000 N 
ATOM     32  H7  UNL     1     161.994 155.111 166.131  0.00  0.00    +0.000 HD
BRANCH  31  33
ATOM     33  C8  UNL     1     163.780 154.937 165.027  0.00  0.00    +0.000 A 
ATOM     34  C9  UNL     1     164.637 155.976 164.822  0.00  0.00    +0.000 A 
ATOM     35  N4  UNL     1     165.922 155.507 164.788  0.00  0.00    +0.000 N 
ATOM     36  C10 UNL     1     167.065 156.377 164.582  0.00  0.00    +0.000 C 
ATOM     37  C11 UNL     1     165.895 154.177 164.970  0.00  0.00    +0.000 A 
ATOM     38  C12 UNL     1     164.589 153.804 165.117  0.00  0.00    +0.000 A 
BRANCH  37  39
ATOM     39  C13 UNL     1     167.080 153.298 165.014  0.00  0.00    +0.000 C 
ATOM     40  O3  UNL     1     167.237 152.429 164.137  0.00  0.00    +0.000 OA
ATOM     41  N5  UNL     1     168.031 153.456 166.062  0.00  0.00    +0.000 N 
ATOM     42  H13 UNL     1     167.815 154.218 166.771  0.00  0.00    +0.000 HD
BRANCH  41  43
ATOM     43  C14 UNL     1     169.210 152.636 166.157  0.00  0.00    +0.000 C 
BRANCH  43  44
ATOM     44  C15 UNL     1     169.231 151.743 167.349  0.00  0.00    +0.000 C 
BRANCH  44  45
ATOM     45  N6  UNL     1     169.345 150.334 166.978  0.00  0.00    +0.000 NA
ATOM     46  C16 UNL     1     168.126 149.629 167.309  0.00  0.00    +0.000 C 
ATOM     47  C17 UNL     1     168.268 148.137 167.058  0.00  0.00    +0.000 C 
ATOM     48  O4  UNL     1     169.063 147.917 165.928  0.00  0.00    +0.000 OA
ATOM     49  C18 UNL     1     168.933 148.995 165.030  0.00  0.00    +0.000 C 
ATOM     50  C19 UNL     1     169.602 150.229 165.571  0.00  0.00    +0.000 C 
ENDBRANCH  44  45
ENDBRANCH  43  44
ENDBRANCH  41  43
ENDBRANCH  37  39
ENDBRANCH  31  33
ENDBRANCH   5  29
TORSDOF 10
ENDMDL
MODEL 8
REMARK VINA RESULT:      -7.2      6.972      9.022
REMARK  Name = ./3D_structures\o3_MMV1634391_3D.pdb
REMARK  12 active torsions:
REMARK  status: ('A' for Active; 'I' for Inactive)
REMARK    1  A    between atoms: C1_2  and  C20_30
REMARK    2  A    between atoms: N1_3  and  C2_4
REMARK    3  A    between atoms: N2_6  and  C4_7
REMARK    4  A    between atoms: C5_8  and  C7_10
REMARK    5  A    between atoms: N3_12  and  C8_13
REMARK    6  A    between atoms: N4_15  and  C10_16
REMARK    7  A    between atoms: C11_17  and  C13_19
REMARK    8  A    between atoms: N5_21  and  C14_22
REMARK    9  A    between atoms: C14_22  and  C15_23
REMARK   10  A    between atoms: C15_23  and  N6_24
REMARK   11  A    between atoms: C23_33  and  C24_34
REMARK   12  A    between atoms: C25_35  and  C26_36
REMARK                            x       y       z     vdW  Elec       q    Type
REMARK                         _______ _______ _______ _____ _____    ______ ____
ROOT
ATOM      1  C2  UNL     1     157.156 152.308 162.154  0.00  0.00    +0.000 A 
ATOM      2  C3  UNL     1     157.877 151.736 161.138  0.00  0.00    +0.000 A 
ATOM      3  N2  UNL     1     157.299 150.580 160.704  0.00  0.00    +0.000 N 
ATOM      4  C4  UNL     1     157.863 149.738 159.641  0.00  0.00    +0.000 C 
ATOM      5  C5  UNL     1     156.206 150.403 161.437  0.00  0.00    +0.000 A 
ATOM      6  C6  UNL     1     156.093 151.466 162.352  0.00  0.00    +0.000 A 
ENDROOT
BRANCH   1   9
ATOM      7  O1  UNL     1     158.887 152.659 164.363  0.00  0.00    +0.000 OA
ATOM      8  C1  UNL     1     158.255 153.684 163.958  0.00  0.00    +0.000 C 
ATOM      9  N1  UNL     1     157.387 153.512 162.863  0.00  0.00    +0.000 N 
ATOM     10  H1  UNL     1     156.867 154.377 162.553  0.00  0.00    +0.000 HD
BRANCH   8  11
ATOM     11  C20 UNL     1     158.473 154.948 164.641  0.00  0.00    +0.000 A 
ATOM     12  C21 UNL     1     159.680 155.591 164.636  0.00  0.00    +0.000 A 
ATOM     13  C22 UNL     1     159.818 156.782 165.360  0.00  0.00    +0.000 A 
ATOM     14  C23 UNL     1     158.772 157.324 166.074  0.00  0.00    +0.000 A 
ATOM     15  C35 UNL     1     157.579 156.683 166.072  0.00  0.00    +0.000 A 
ATOM     16  C36 UNL     1     157.432 155.495 165.355  0.00  0.00    +0.000 A 
BRANCH  14  17
ATOM     17  C24 UNL     1     159.019 158.542 166.827  0.00  0.00    +0.000 C 
ATOM     18  C25 UNL     1     158.434 158.885 167.947  0.00  0.00    +0.000 C 
BRANCH  18  19
ATOM     19  C26 UNL     1     158.684 160.104 168.701  0.00  0.00    +0.000 A 
ATOM     20  C27 UNL     1     159.899 160.746 168.774  0.00  0.00    +0.000 A 
ATOM     21  C28 UNL     1     160.074 161.895 169.549  0.00  0.00    +0.000 A 
ATOM     22  C29 UNL     1     161.290 162.533 169.625  0.00  0.00    +0.000 A 
ATOM     23  C30 UNL     1     161.452 163.661 170.398  0.00  0.00    +0.000 A 
ATOM     24  C31 UNL     1     160.391 164.206 171.137  0.00  0.00    +0.000 A 
ATOM     25  C32 UNL     1     159.181 163.540 171.039  0.00  0.00    +0.000 A 
ATOM     26  C33 UNL     1     159.017 162.403 170.260  0.00  0.00    +0.000 A 
ATOM     27  N7  UNL     1     157.823 161.780 170.195  0.00  0.00    +0.000 NA
ATOM     28  C34 UNL     1     157.655 160.668 169.443  0.00  0.00    +0.000 A 
ENDBRANCH  18  19
ENDBRANCH  14  17
ENDBRANCH   8  11
ENDBRANCH   1   9
BRANCH   5  29
ATOM     29  C7  UNL     1     155.185 149.356 161.337  0.00  0.00    +0.000 C 
ATOM     30  O2  UNL     1     155.371 148.255 161.909  0.00  0.00    +0.000 OA
ATOM     31  N3  UNL     1     153.999 149.575 160.615  0.00  0.00    +0.000 N 
ATOM     32  H7  UNL     1     153.795 150.484 160.139  0.00  0.00    +0.000 HD
BRANCH  31  33
ATOM     33  C8  UNL     1     152.978 148.576 160.497  0.00  0.00    +0.000 A 
ATOM     34  C9  UNL     1     151.653 148.635 160.809  0.00  0.00    +0.000 A 
ATOM     35  N4  UNL     1     151.057 147.444 160.495  0.00  0.00    +0.000 N 
ATOM     36  C10 UNL     1     149.644 147.196 160.714  0.00  0.00    +0.000 C 
ATOM     37  C11 UNL     1     151.989 146.622 159.985  0.00  0.00    +0.000 A 
ATOM     38  C12 UNL     1     153.178 147.296 159.978  0.00  0.00    +0.000 A 
BRANCH  37  39
ATOM     39  C13 UNL     1     151.746 145.247 159.509  0.00  0.00    +0.000 C 
ATOM     40  O3  UNL     1     151.340 145.058 158.347  0.00  0.00    +0.000 OA
ATOM     41  N5  UNL     1     151.980 144.150 160.386  0.00  0.00    +0.000 N 
ATOM     42  H13 UNL     1     152.321 144.402 161.361  0.00  0.00    +0.000 HD
BRANCH  41  43
ATOM     43  C14 UNL     1     151.769 142.785 159.980  0.00  0.00    +0.000 C 
BRANCH  43  44
ATOM     44  C15 UNL     1     151.693 141.822 161.114  0.00  0.00    +0.000 C 
BRANCH  44  45
ATOM     45  N6  UNL     1     152.992 141.621 161.753  0.00  0.00    +0.000 NA
ATOM     46  C16 UNL     1     152.925 140.514 162.682  0.00  0.00    +0.000 C 
ATOM     47  C17 UNL     1     154.223 140.370 163.459  0.00  0.00    +0.000 C 
ATOM     48  O4  UNL     1     155.309 140.689 162.636  0.00  0.00    +0.000 OA
ATOM     49  C18 UNL     1     155.000 140.392 161.294  0.00  0.00    +0.000 C 
ATOM     50  C19 UNL     1     153.983 141.358 160.751  0.00  0.00    +0.000 C 
ENDBRANCH  44  45
ENDBRANCH  43  44
ENDBRANCH  41  43
ENDBRANCH  37  39
ENDBRANCH  31  33
ENDBRANCH   5  29
TORSDOF 10
ENDMDL
MODEL 9
REMARK VINA RESULT:      -7.1      3.417      5.762
REMARK  Name = ./3D_structures\o3_MMV1634391_3D.pdb
REMARK  12 active torsions:
REMARK  status: ('A' for Active; 'I' for Inactive)
REMARK    1  A    between atoms: C1_2  and  C20_30
REMARK    2  A    between atoms: N1_3  and  C2_4
REMARK    3  A    between atoms: N2_6  and  C4_7
REMARK    4  A    between atoms: C5_8  and  C7_10
REMARK    5  A    between atoms: N3_12  and  C8_13
REMARK    6  A    between atoms: N4_15  and  C10_16
REMARK    7  A    between atoms: C11_17  and  C13_19
REMARK    8  A    between atoms: N5_21  and  C14_22
REMARK    9  A    between atoms: C14_22  and  C15_23
REMARK   10  A    between atoms: C15_23  and  N6_24
REMARK   11  A    between atoms: C23_33  and  C24_34
REMARK   12  A    between atoms: C25_35  and  C26_36
REMARK                            x       y       z     vdW  Elec       q    Type
REMARK                         _______ _______ _______ _____ _____    ______ ____
ROOT
ATOM      1  C2  UNL     1     157.470 156.007 165.066  0.00  0.00    +0.000 A 
ATOM      2  C3  UNL     1     158.814 156.200 164.871  0.00  0.00    +0.000 A 
ATOM      3  N2  UNL     1     159.440 155.038 164.528  0.00  0.00    +0.000 N 
ATOM      4  C4  UNL     1     160.884 154.935 164.282  0.00  0.00    +0.000 C 
ATOM      5  C5  UNL     1     158.504 154.096 164.500  0.00  0.00    +0.000 A 
ATOM      6  C6  UNL     1     157.265 154.672 164.835  0.00  0.00    +0.000 A 
ENDROOT
BRANCH   1   9
ATOM      7  O1  UNL     1     156.588 156.669 167.670  0.00  0.00    +0.000 OA
ATOM      8  C1  UNL     1     156.029 157.274 166.702  0.00  0.00    +0.000 C 
ATOM      9  N1  UNL     1     156.460 156.941 165.404  0.00  0.00    +0.000 N 
ATOM     10  H1  UNL     1     155.973 157.450 164.616  0.00  0.00    +0.000 HD
BRANCH   8  11
ATOM     11  C20 UNL     1     155.000 158.257 166.998  0.00  0.00    +0.000 A 
ATOM     12  C21 UNL     1     154.424 158.373 168.232  0.00  0.00    +0.000 A 
ATOM     13  C22 UNL     1     153.405 159.315 168.419  0.00  0.00    +0.000 A 
ATOM     14  C23 UNL     1     152.968 160.127 167.396  0.00  0.00    +0.000 A 
ATOM     15  C35 UNL     1     153.546 160.008 166.176  0.00  0.00    +0.000 A 
ATOM     16  C36 UNL     1     154.562 159.072 165.979  0.00  0.00    +0.000 A 
BRANCH  14  17
ATOM     17  C24 UNL     1     151.879 161.048 167.673  0.00  0.00    +0.000 C 
ATOM     18  C25 UNL     1     151.342 161.272 168.845  0.00  0.00    +0.000 C 
BRANCH  18  19
ATOM     19  C26 UNL     1     150.253 162.197 169.122  0.00  0.00    +0.000 A 
ATOM     20  C27 UNL     1     148.986 162.097 168.596  0.00  0.00    +0.000 A 
ATOM     21  C28 UNL     1     147.999 163.045 168.879  0.00  0.00    +0.000 A 
ATOM     22  C29 UNL     1     146.735 162.947 168.346  0.00  0.00    +0.000 A 
ATOM     23  C30 UNL     1     145.772 163.891 168.627  0.00  0.00    +0.000 A 
ATOM     24  C31 UNL     1     146.037 164.986 169.463  0.00  0.00    +0.000 A 
ATOM     25  C32 UNL     1     147.319 165.055 169.981  0.00  0.00    +0.000 A 
ATOM     26  C33 UNL     1     148.289 164.105 169.699  0.00  0.00    +0.000 A 
ATOM     27  N7  UNL     1     149.528 164.210 170.219  0.00  0.00    +0.000 NA
ATOM     28  C34 UNL     1     150.483 163.291 169.946  0.00  0.00    +0.000 A 
ENDBRANCH  18  19
ENDBRANCH  14  17
ENDBRANCH   8  11
ENDBRANCH   1   9
BRANCH   5  29
ATOM     29  C7  UNL     1     158.625 152.685 164.123  0.00  0.00    +0.000 C 
ATOM     30  O2  UNL     1     159.755 152.138 164.125  0.00  0.00    +0.000 OA
ATOM     31  N3  UNL     1     157.490 151.935 163.768  0.00  0.00    +0.000 N 
ATOM     32  H7  UNL     1     156.527 152.345 163.771  0.00  0.00    +0.000 HD
BRANCH  31  33
ATOM     33  C8  UNL     1     157.568 150.553 163.396  0.00  0.00    +0.000 A 
ATOM     34  C9  UNL     1     157.996 149.475 164.111  0.00  0.00    +0.000 A 
ATOM     35  N4  UNL     1     157.860 148.343 163.355  0.00  0.00    +0.000 N 
ATOM     36  C10 UNL     1     158.235 147.028 163.843  0.00  0.00    +0.000 C 
ATOM     37  C11 UNL     1     157.349 148.687 162.162  0.00  0.00    +0.000 A 
ATOM     38  C12 UNL     1     157.163 150.040 162.164  0.00  0.00    +0.000 A 
BRANCH  37  39
ATOM     39  C13 UNL     1     157.037 147.750 161.065  0.00  0.00    +0.000 C 
ATOM     40  O3  UNL     1     157.924 147.436 160.250  0.00  0.00    +0.000 OA
ATOM     41  N5  UNL     1     155.723 147.213 160.954  0.00  0.00    +0.000 N 
ATOM     42  H13 UNL     1     155.027 147.538 161.689  0.00  0.00    +0.000 HD
BRANCH  41  43
ATOM     43  C14 UNL     1     155.358 146.289 159.912  0.00  0.00    +0.000 C 
BRANCH  43  44
ATOM     44  C15 UNL     1     153.998 146.518 159.350  0.00  0.00    +0.000 C 
BRANCH  44  45
ATOM     45  N6  UNL     1     153.002 146.745 160.395  0.00  0.00    +0.000 NA
ATOM     46  C16 UNL     1     152.105 147.813 160.008  0.00  0.00    +0.000 C 
ATOM     47  C17 UNL     1     151.145 148.159 161.134  0.00  0.00    +0.000 C 
ATOM     48  O4  UNL     1     150.790 147.000 161.831  0.00  0.00    +0.000 OA
ATOM     49  C18 UNL     1     150.837 145.885 160.970  0.00  0.00    +0.000 C 
ATOM     50  C19 UNL     1     152.258 145.540 160.617  0.00  0.00    +0.000 C 
ENDBRANCH  44  45
ENDBRANCH  43  44
ENDBRANCH  41  43
ENDBRANCH  37  39
ENDBRANCH  31  33
ENDBRANCH   5  29
TORSDOF 10
ENDMDL
