MODEL 1
REMARK VINA RESULT:      -5.9      0.000      0.000
REMARK  Name = ./3D_structures\o40_MMV1579847_3D.pdb
REMARK  5 active torsions:
REMARK  status: ('A' for Active; 'I' for Inactive)
REMARK    1  A    between atoms: C1_1  and  C2_2
REMARK    2  A    between atoms: C5_6  and  C6_7
REMARK    3  A    between atoms: N2_9  and  C7_10
REMARK    4  A    between atoms: C7_10  and  C8_11
REMARK    5  A    between atoms: C14_17  and  C15_18
REMARK                            x       y       z     vdW  Elec       q    Type
REMARK                         _______ _______ _______ _____ _____    ______ ____
ROOT
ATOM      1  C1  UNL     1     142.679 165.924 165.354  0.00  0.00    +0.000 C 
ATOM      2  C2  UNL     1     144.111 165.693 165.670  0.00  0.00    +0.000 A 
ATOM      3  C3  UNL     1     145.090 166.624 165.411  0.00  0.00    +0.000 A 
ATOM      4  C4  UNL     1     146.423 166.326 165.742  0.00  0.00    +0.000 A 
ATOM      5  N1  UNL     1     146.755 165.144 166.306  0.00  0.00    +0.000 N 
ATOM      6  C5  UNL     1     147.957 164.631 166.715  0.00  0.00    +0.000 A 
ATOM      7  C14 UNL     1     147.741 163.378 167.231  0.00  0.00    +0.000 A 
ATOM      8  C15 UNL     1     148.707 162.424 167.775  0.00  0.00    +0.000 C 
ATOM      9  N3  UNL     1     146.408 163.145 167.129  0.00  0.00    +0.000 NA
ATOM     10  C16 UNL     1     145.829 164.214 166.572  0.00  0.00    +0.000 A 
ATOM     11  C17 UNL     1     144.508 164.517 166.240  0.00  0.00    +0.000 A 
ENDROOT
BRANCH   6  12
ATOM     12  C6  UNL     1     149.222 165.343 166.570  0.00  0.00    +0.000 C 
ATOM     13  O1  UNL     1     149.588 166.091 167.531  0.00  0.00    +0.000 OA
ATOM     14  N2  UNL     1     150.103 165.296 165.475  0.00  0.00    +0.000 N 
ATOM     15  H6  UNL     1     149.880 164.695 164.667  0.00  0.00    +0.000 HD
BRANCH  14  16
ATOM     16  C7  UNL     1     151.356 166.077 165.459  0.00  0.00    +0.000 C 
BRANCH  16  17
ATOM     17  C8  UNL     1     152.433 165.408 164.724  0.00  0.00    +0.000 A 
ATOM     18  C9  UNL     1     153.691 166.004 164.616  0.00  0.00    +0.000 A 
ATOM     19  C10 UNL     1     154.735 165.423 163.946  0.00  0.00    +0.000 A 
ATOM     20  C11 UNL     1     154.559 164.191 163.342  0.00  0.00    +0.000 A 
ATOM     21  C12 UNL     1     153.329 163.592 163.439  0.00  0.00    +0.000 A 
ATOM     22  C13 UNL     1     152.277 164.199 164.126  0.00  0.00    +0.000 A 
ENDBRANCH  16  17
ENDBRANCH  14  16
ENDBRANCH   6  12
TORSDOF 3
ENDMDL
MODEL 2
REMARK VINA RESULT:      -5.9      3.483      4.417
REMARK  Name = ./3D_structures\o40_MMV1579847_3D.pdb
REMARK  5 active torsions:
REMARK  status: ('A' for Active; 'I' for Inactive)
REMARK    1  A    between atoms: C1_1  and  C2_2
REMARK    2  A    between atoms: C5_6  and  C6_7
REMARK    3  A    between atoms: N2_9  and  C7_10
REMARK    4  A    between atoms: C7_10  and  C8_11
REMARK    5  A    between atoms: C14_17  and  C15_18
REMARK                            x       y       z     vdW  Elec       q    Type
REMARK                         _______ _______ _______ _____ _____    ______ ____
ROOT
ATOM      1  C1  UNL     1     145.964 166.877 165.592  0.00  0.00    +0.000 C 
ATOM      2  C2  UNL     1     146.637 165.695 166.189  0.00  0.00    +0.000 A 
ATOM      3  C3  UNL     1     147.900 165.753 166.731  0.00  0.00    +0.000 A 
ATOM      4  C4  UNL     1     148.464 164.587 167.277  0.00  0.00    +0.000 A 
ATOM      5  N1  UNL     1     147.788 163.418 167.276  0.00  0.00    +0.000 N 
ATOM      6  C5  UNL     1     148.115 162.171 167.742  0.00  0.00    +0.000 A 
ATOM      7  C14 UNL     1     147.062 161.326 167.494  0.00  0.00    +0.000 A 
ATOM      8  C15 UNL     1     146.936 159.898 167.785  0.00  0.00    +0.000 C 
ATOM      9  N3  UNL     1     146.108 162.071 166.881  0.00  0.00    +0.000 NA
ATOM     10  C16 UNL     1     146.557 163.324 166.757  0.00  0.00    +0.000 A 
ATOM     11  C17 UNL     1     146.004 164.485 166.216  0.00  0.00    +0.000 A 
ENDROOT
BRANCH   6  12
ATOM     12  C6  UNL     1     149.398 161.860 168.361  0.00  0.00    +0.000 C 
ATOM     13  O1  UNL     1     149.517 162.084 169.607  0.00  0.00    +0.000 OA
ATOM     14  N2  UNL     1     150.538 161.327 167.735  0.00  0.00    +0.000 N 
ATOM     15  H6  UNL     1     150.507 161.102 166.727  0.00  0.00    +0.000 HD
BRANCH  14  16
ATOM     16  C7  UNL     1     151.781 161.063 168.487  0.00  0.00    +0.000 C 
BRANCH  16  17
ATOM     17  C8  UNL     1     152.715 160.201 167.757  0.00  0.00    +0.000 A 
ATOM     18  C9  UNL     1     153.320 159.116 168.394  0.00  0.00    +0.000 A 
ATOM     19  C10 UNL     1     154.196 158.275 167.761  0.00  0.00    +0.000 A 
ATOM     20  C11 UNL     1     154.511 158.491 166.431  0.00  0.00    +0.000 A 
ATOM     21  C12 UNL     1     153.925 159.553 165.791  0.00  0.00    +0.000 A 
ATOM     22  C13 UNL     1     153.034 160.399 166.453  0.00  0.00    +0.000 A 
ENDBRANCH  16  17
ENDBRANCH  14  16
ENDBRANCH   6  12
TORSDOF 3
ENDMDL
MODEL 3
REMARK VINA RESULT:      -5.8     12.265     14.409
REMARK  Name = ./3D_structures\o40_MMV1579847_3D.pdb
REMARK  5 active torsions:
REMARK  status: ('A' for Active; 'I' for Inactive)
REMARK    1  A    between atoms: C1_1  and  C2_2
REMARK    2  A    between atoms: C5_6  and  C6_7
REMARK    3  A    between atoms: N2_9  and  C7_10
REMARK    4  A    between atoms: C7_10  and  C8_11
REMARK    5  A    between atoms: C14_17  and  C15_18
REMARK                            x       y       z     vdW  Elec       q    Type
REMARK                         _______ _______ _______ _____ _____    ______ ____
ROOT
ATOM      1  C1  UNL     1     157.439 158.784 171.217  0.00  0.00    +0.000 C 
ATOM      2  C2  UNL     1     157.727 158.264 169.856  0.00  0.00    +0.000 A 
ATOM      3  C3  UNL     1     156.856 157.448 169.172  0.00  0.00    +0.000 A 
ATOM      4  C4  UNL     1     157.205 156.999 167.887  0.00  0.00    +0.000 A 
ATOM      5  N1  UNL     1     158.377 157.354 167.318  0.00  0.00    +0.000 N 
ATOM      6  C5  UNL     1     158.932 157.057 166.101  0.00  0.00    +0.000 A 
ATOM      7  C14 UNL     1     160.150 157.681 166.015  0.00  0.00    +0.000 A 
ATOM      8  C15 UNL     1     161.127 157.654 164.927  0.00  0.00    +0.000 C 
ATOM      9  N3  UNL     1     160.322 158.352 167.182  0.00  0.00    +0.000 NA
ATOM     10  C16 UNL     1     159.249 158.147 167.954  0.00  0.00    +0.000 A 
ATOM     11  C17 UNL     1     158.896 158.588 169.230  0.00  0.00    +0.000 A 
ENDROOT
BRANCH   6  12
ATOM     12  C6  UNL     1     158.289 156.190 165.120  0.00  0.00    +0.000 C 
ATOM     13  O1  UNL     1     157.438 156.720 164.337  0.00  0.00    +0.000 OA
ATOM     14  N2  UNL     1     158.505 154.813 164.930  0.00  0.00    +0.000 N 
ATOM     15  H6  UNL     1     159.196 154.321 165.518  0.00  0.00    +0.000 HD
BRANCH  14  16
ATOM     16  C7  UNL     1     157.777 154.053 163.895  0.00  0.00    +0.000 C 
BRANCH  16  17
ATOM     17  C8  UNL     1     157.717 152.617 164.181  0.00  0.00    +0.000 A 
ATOM     18  C9  UNL     1     158.811 151.963 164.751  0.00  0.00    +0.000 A 
ATOM     19  C10 UNL     1     158.811 150.626 165.044  0.00  0.00    +0.000 A 
ATOM     20  C11 UNL     1     157.686 149.867 164.771  0.00  0.00    +0.000 A 
ATOM     21  C12 UNL     1     156.603 150.494 164.211  0.00  0.00    +0.000 A 
ATOM     22  C13 UNL     1     156.622 151.858 163.920  0.00  0.00    +0.000 A 
ENDBRANCH  16  17
ENDBRANCH  14  16
ENDBRANCH   6  12
TORSDOF 3
ENDMDL
MODEL 4
REMARK VINA RESULT:      -5.7      7.910     11.500
REMARK  Name = ./3D_structures\o40_MMV1579847_3D.pdb
REMARK  5 active torsions:
REMARK  status: ('A' for Active; 'I' for Inactive)
REMARK    1  A    between atoms: C1_1  and  C2_2
REMARK    2  A    between atoms: C5_6  and  C6_7
REMARK    3  A    between atoms: N2_9  and  C7_10
REMARK    4  A    between atoms: C7_10  and  C8_11
REMARK    5  A    between atoms: C14_17  and  C15_18
REMARK                            x       y       z     vdW  Elec       q    Type
REMARK                         _______ _______ _______ _____ _____    ______ ____
ROOT
ATOM      1  C1  UNL     1     161.154 158.170 166.520  0.00  0.00    +0.000 C 
ATOM      2  C2  UNL     1     159.853 158.244 167.232  0.00  0.00    +0.000 A 
ATOM      3  C3  UNL     1     158.646 158.298 166.574  0.00  0.00    +0.000 A 
ATOM      4  C4  UNL     1     157.459 158.366 167.324  0.00  0.00    +0.000 A 
ATOM      5  N1  UNL     1     157.487 158.381 168.674  0.00  0.00    +0.000 N 
ATOM      6  C5  UNL     1     156.488 158.438 169.610  0.00  0.00    +0.000 A 
ATOM      7  C14 UNL     1     157.060 158.422 170.857  0.00  0.00    +0.000 A 
ATOM      8  C15 UNL     1     156.417 158.484 172.169  0.00  0.00    +0.000 C 
ATOM      9  N3  UNL     1     158.402 158.354 170.664  0.00  0.00    +0.000 NA
ATOM     10  C16 UNL     1     158.644 158.330 169.349  0.00  0.00    +0.000 A 
ATOM     11  C17 UNL     1     159.817 158.263 168.597  0.00  0.00    +0.000 A 
ENDROOT
BRANCH   6  12
ATOM     12  C6  UNL     1     155.074 158.528 169.265  0.00  0.00    +0.000 C 
ATOM     13  O1  UNL     1     154.469 157.446 168.982  0.00  0.00    +0.000 OA
ATOM     14  N2  UNL     1     154.284 159.690 169.213  0.00  0.00    +0.000 N 
ATOM     15  H6  UNL     1     154.704 160.603 169.450  0.00  0.00    +0.000 HD
BRANCH  14  16
ATOM     16  C7  UNL     1     152.856 159.637 168.842  0.00  0.00    +0.000 C 
BRANCH  16  17
ATOM     17  C8  UNL     1     152.572 160.313 167.574  0.00  0.00    +0.000 A 
ATOM     18  C9  UNL     1     153.397 160.114 166.466  0.00  0.00    +0.000 A 
ATOM     19  C10 UNL     1     153.178 160.715 165.255  0.00  0.00    +0.000 A 
ATOM     20  C11 UNL     1     152.096 161.563 165.100  0.00  0.00    +0.000 A 
ATOM     21  C12 UNL     1     151.275 161.770 166.179  0.00  0.00    +0.000 A 
ATOM     22  C13 UNL     1     151.515 161.148 167.404  0.00  0.00    +0.000 A 
ENDBRANCH  16  17
ENDBRANCH  14  16
ENDBRANCH   6  12
TORSDOF 3
ENDMDL
MODEL 5
REMARK VINA RESULT:      -5.7      6.922      8.858
REMARK  Name = ./3D_structures\o40_MMV1579847_3D.pdb
REMARK  5 active torsions:
REMARK  status: ('A' for Active; 'I' for Inactive)
REMARK    1  A    between atoms: C1_1  and  C2_2
REMARK    2  A    between atoms: C5_6  and  C6_7
REMARK    3  A    between atoms: N2_9  and  C7_10
REMARK    4  A    between atoms: C7_10  and  C8_11
REMARK    5  A    between atoms: C14_17  and  C15_18
REMARK                            x       y       z     vdW  Elec       q    Type
REMARK                         _______ _______ _______ _____ _____    ______ ____
ROOT
ATOM      1  C1  UNL     1     152.236 162.910 164.120  0.00  0.00    +0.000 C 
ATOM      2  C2  UNL     1     152.606 161.926 165.168  0.00  0.00    +0.000 A 
ATOM      3  C3  UNL     1     153.766 161.188 165.120  0.00  0.00    +0.000 A 
ATOM      4  C4  UNL     1     154.042 160.278 166.155  0.00  0.00    +0.000 A 
ATOM      5  N1  UNL     1     153.187 160.117 167.189  0.00  0.00    +0.000 N 
ATOM      6  C5  UNL     1     153.233 159.312 168.297  0.00  0.00    +0.000 A 
ATOM      7  C14 UNL     1     152.104 159.539 169.044  0.00  0.00    +0.000 A 
ATOM      8  C15 UNL     1     151.686 158.914 170.298  0.00  0.00    +0.000 C 
ATOM      9  N3  UNL     1     151.386 160.480 168.380  0.00  0.00    +0.000 NA
ATOM     10  C16 UNL     1     152.049 160.818 167.268  0.00  0.00    +0.000 A 
ATOM     11  C17 UNL     1     151.782 161.719 166.238  0.00  0.00    +0.000 A 
ENDROOT
BRANCH   6  12
ATOM     12  C6  UNL     1     154.317 158.374 168.560  0.00  0.00    +0.000 C 
ATOM     13  O1  UNL     1     154.194 157.193 168.106  0.00  0.00    +0.000 OA
ATOM     14  N2  UNL     1     155.508 158.626 169.265  0.00  0.00    +0.000 N 
ATOM     15  H6  UNL     1     155.685 159.569 169.645  0.00  0.00    +0.000 HD
BRANCH  14  16
ATOM     16  C7  UNL     1     156.526 157.575 169.461  0.00  0.00    +0.000 C 
BRANCH  16  17
ATOM     17  C8  UNL     1     157.666 157.711 168.550  0.00  0.00    +0.000 A 
ATOM     18  C9  UNL     1     158.820 158.384 168.956  0.00  0.00    +0.000 A 
ATOM     19  C10 UNL     1     159.916 158.537 168.149  0.00  0.00    +0.000 A 
ATOM     20  C11 UNL     1     159.902 158.008 166.870  0.00  0.00    +0.000 A 
ATOM     21  C12 UNL     1     158.777 157.344 166.457  0.00  0.00    +0.000 A 
ATOM     22  C13 UNL     1     157.670 157.198 167.293  0.00  0.00    +0.000 A 
ENDBRANCH  16  17
ENDBRANCH  14  16
ENDBRANCH   6  12
TORSDOF 3
ENDMDL
MODEL 6
REMARK VINA RESULT:      -5.6      7.653     10.626
REMARK  Name = ./3D_structures\o40_MMV1579847_3D.pdb
REMARK  5 active torsions:
REMARK  status: ('A' for Active; 'I' for Inactive)
REMARK    1  A    between atoms: C1_1  and  C2_2
REMARK    2  A    between atoms: C5_6  and  C6_7
REMARK    3  A    between atoms: N2_9  and  C7_10
REMARK    4  A    between atoms: C7_10  and  C8_11
REMARK    5  A    between atoms: C14_17  and  C15_18
REMARK                            x       y       z     vdW  Elec       q    Type
REMARK                         _______ _______ _______ _____ _____    ______ ____
ROOT
ATOM      1  C1  UNL     1     155.202 159.839 173.718  0.00  0.00    +0.000 C 
ATOM      2  C2  UNL     1     155.668 159.654 172.320  0.00  0.00    +0.000 A 
ATOM      3  C3  UNL     1     154.876 159.930 171.229  0.00  0.00    +0.000 A 
ATOM      4  C4  UNL     1     155.395 159.727 169.938  0.00  0.00    +0.000 A 
ATOM      5  N1  UNL     1     156.651 159.268 169.755  0.00  0.00    +0.000 N 
ATOM      6  C5  UNL     1     157.371 158.998 168.621  0.00  0.00    +0.000 A 
ATOM      7  C14 UNL     1     158.615 158.553 168.992  0.00  0.00    +0.000 A 
ATOM      8  C15 UNL     1     159.731 158.122 168.150  0.00  0.00    +0.000 C 
ATOM      9  N3  UNL     1     158.635 158.557 170.349  0.00  0.00    +0.000 NA
ATOM     10  C16 UNL     1     157.450 158.989 170.793  0.00  0.00    +0.000 A 
ATOM     11  C17 UNL     1     156.928 159.192 172.071  0.00  0.00    +0.000 A 
ENDROOT
BRANCH   6  12
ATOM     12  C6  UNL     1     156.831 159.155 167.276  0.00  0.00    +0.000 C 
ATOM     13  O1  UNL     1     156.374 158.116 166.702  0.00  0.00    +0.000 OA
ATOM     14  N2  UNL     1     156.750 160.340 166.524  0.00  0.00    +0.000 N 
ATOM     15  H6  UNL     1     157.084 161.227 166.934  0.00  0.00    +0.000 HD
BRANCH  14  16
ATOM     16  C7  UNL     1     156.179 160.355 165.163  0.00  0.00    +0.000 C 
BRANCH  16  17
ATOM     17  C8  UNL     1     154.854 160.977 165.108  0.00  0.00    +0.000 A 
ATOM     18  C9  UNL     1     153.708 160.225 165.377  0.00  0.00    +0.000 A 
ATOM     19  C10 UNL     1     152.446 160.755 165.346  0.00  0.00    +0.000 A 
ATOM     20  C11 UNL     1     152.273 162.092 165.035  0.00  0.00    +0.000 A 
ATOM     21  C12 UNL     1     153.388 162.844 164.767  0.00  0.00    +0.000 A 
ATOM     22  C13 UNL     1     154.666 162.287 164.805  0.00  0.00    +0.000 A 
ENDBRANCH  16  17
ENDBRANCH  14  16
ENDBRANCH   6  12
TORSDOF 3
ENDMDL
MODEL 7
REMARK VINA RESULT:      -5.6     11.971     13.612
REMARK  Name = ./3D_structures\o40_MMV1579847_3D.pdb
REMARK  5 active torsions:
REMARK  status: ('A' for Active; 'I' for Inactive)
REMARK    1  A    between atoms: C1_1  and  C2_2
REMARK    2  A    between atoms: C5_6  and  C6_7
REMARK    3  A    between atoms: N2_9  and  C7_10
REMARK    4  A    between atoms: C7_10  and  C8_11
REMARK    5  A    between atoms: C14_17  and  C15_18
REMARK                            x       y       z     vdW  Elec       q    Type
REMARK                         _______ _______ _______ _____ _____    ______ ____
ROOT
ATOM      1  C1  UNL     1     156.246 158.453 172.034  0.00  0.00    +0.000 C 
ATOM      2  C2  UNL     1     157.021 158.322 170.774  0.00  0.00    +0.000 A 
ATOM      3  C3  UNL     1     158.264 158.885 170.603  0.00  0.00    +0.000 A 
ATOM      4  C4  UNL     1     158.931 158.713 169.377  0.00  0.00    +0.000 A 
ATOM      5  N1  UNL     1     158.370 158.007 168.371  0.00  0.00    +0.000 N 
ATOM      6  C5  UNL     1     158.812 157.701 167.111  0.00  0.00    +0.000 A 
ATOM      7  C14 UNL     1     157.851 156.947 166.485  0.00  0.00    +0.000 A 
ATOM      8  C15 UNL     1     157.846 156.396 165.130  0.00  0.00    +0.000 C 
ATOM      9  N3  UNL     1     156.836 156.804 167.374  0.00  0.00    +0.000 NA
ATOM     10  C16 UNL     1     157.162 157.445 168.502  0.00  0.00    +0.000 A 
ATOM     11  C17 UNL     1     156.506 157.621 169.721  0.00  0.00    +0.000 A 
ENDROOT
BRANCH   6  12
ATOM     12  C6  UNL     1     160.090 158.158 166.579  0.00  0.00    +0.000 C 
ATOM     13  O1  UNL     1     160.065 159.081 165.703  0.00  0.00    +0.000 OA
ATOM     14  N2  UNL     1     161.372 157.697 166.928  0.00  0.00    +0.000 N 
ATOM     15  H6  UNL     1     161.470 156.962 167.646  0.00  0.00    +0.000 HD
BRANCH  14  16
ATOM     16  C7  UNL     1     162.589 158.250 166.302  0.00  0.00    +0.000 C 
BRANCH  16  17
ATOM     17  C8  UNL     1     163.516 158.830 167.278  0.00  0.00    +0.000 A 
ATOM     18  C9  UNL     1     163.475 160.195 167.568  0.00  0.00    +0.000 A 
ATOM     19  C10 UNL     1     164.312 160.791 168.473  0.00  0.00    +0.000 A 
ATOM     20  C11 UNL     1     165.250 160.025 169.142  0.00  0.00    +0.000 A 
ATOM     21  C12 UNL     1     165.304 158.682 168.869  0.00  0.00    +0.000 A 
ATOM     22  C13 UNL     1     164.442 158.093 167.944  0.00  0.00    +0.000 A 
ENDBRANCH  16  17
ENDBRANCH  14  16
ENDBRANCH   6  12
TORSDOF 3
ENDMDL
MODEL 8
REMARK VINA RESULT:      -5.5      9.245     11.869
REMARK  Name = ./3D_structures\o40_MMV1579847_3D.pdb
REMARK  5 active torsions:
REMARK  status: ('A' for Active; 'I' for Inactive)
REMARK    1  A    between atoms: C1_1  and  C2_2
REMARK    2  A    between atoms: C5_6  and  C6_7
REMARK    3  A    between atoms: N2_9  and  C7_10
REMARK    4  A    between atoms: C7_10  and  C8_11
REMARK    5  A    between atoms: C14_17  and  C15_18
REMARK                            x       y       z     vdW  Elec       q    Type
REMARK                         _______ _______ _______ _____ _____    ______ ____
ROOT
ATOM      1  C1  UNL     1     155.790 159.609 173.348  0.00  0.00    +0.000 C 
ATOM      2  C2  UNL     1     156.012 159.276 171.918  0.00  0.00    +0.000 A 
ATOM      3  C3  UNL     1     157.225 158.843 171.434  0.00  0.00    +0.000 A 
ATOM      4  C4  UNL     1     157.349 158.547 170.066  0.00  0.00    +0.000 A 
ATOM      5  N1  UNL     1     156.302 158.682 169.224  0.00  0.00    +0.000 N 
ATOM      6  C5  UNL     1     156.174 158.457 167.879  0.00  0.00    +0.000 A 
ATOM      7  C14 UNL     1     154.884 158.748 167.511  0.00  0.00    +0.000 A 
ATOM      8  C15 UNL     1     154.265 158.686 166.187  0.00  0.00    +0.000 C 
ATOM      9  N3  UNL     1     154.243 159.145 168.639  0.00  0.00    +0.000 NA
ATOM     10  C16 UNL     1     155.106 159.100 169.660  0.00  0.00    +0.000 A 
ATOM     11  C17 UNL     1     154.991 159.392 171.019  0.00  0.00    +0.000 A 
ENDROOT
BRANCH   6  12
ATOM     12  C6  UNL     1     157.276 158.012 167.034  0.00  0.00    +0.000 C 
ATOM     13  O1  UNL     1     158.088 158.896 166.614  0.00  0.00    +0.000 OA
ATOM     14  N2  UNL     1     157.557 156.696 166.626  0.00  0.00    +0.000 N 
ATOM     15  H6  UNL     1     156.951 155.924 166.945  0.00  0.00    +0.000 HD
BRANCH  14  16
ATOM     16  C7  UNL     1     158.712 156.385 165.761  0.00  0.00    +0.000 C 
BRANCH  16  17
ATOM     17  C8  UNL     1     158.363 155.509 164.639  0.00  0.00    +0.000 A 
ATOM     18  C9  UNL     1     158.609 154.137 164.711  0.00  0.00    +0.000 A 
ATOM     19  C10 UNL     1     158.300 153.270 163.697  0.00  0.00    +0.000 A 
ATOM     20  C11 UNL     1     157.718 153.754 162.539  0.00  0.00    +0.000 A 
ATOM     21  C12 UNL     1     157.470 155.099 162.452  0.00  0.00    +0.000 A 
ATOM     22  C13 UNL     1     157.791 155.967 163.496  0.00  0.00    +0.000 A 
ENDBRANCH  16  17
ENDBRANCH  14  16
ENDBRANCH   6  12
TORSDOF 3
ENDMDL
MODEL 9
REMARK VINA RESULT:      -5.4      3.746      5.429
REMARK  Name = ./3D_structures\o40_MMV1579847_3D.pdb
REMARK  5 active torsions:
REMARK  status: ('A' for Active; 'I' for Inactive)
REMARK    1  A    between atoms: C1_1  and  C2_2
REMARK    2  A    between atoms: C5_6  and  C6_7
REMARK    3  A    between atoms: N2_9  and  C7_10
REMARK    4  A    between atoms: C7_10  and  C8_11
REMARK    5  A    between atoms: C14_17  and  C15_18
REMARK                            x       y       z     vdW  Elec       q    Type
REMARK                         _______ _______ _______ _____ _____    ______ ____
ROOT
ATOM      1  C1  UNL     1     145.634 167.090 165.707  0.00  0.00    +0.000 C 
ATOM      2  C2  UNL     1     146.349 165.883 166.195  0.00  0.00    +0.000 A 
ATOM      3  C3  UNL     1     147.701 165.871 166.450  0.00  0.00    +0.000 A 
ATOM      4  C4  UNL     1     148.301 164.686 166.911  0.00  0.00    +0.000 A 
ATOM      5  N1  UNL     1     147.573 163.565 167.104  0.00  0.00    +0.000 N 
ATOM      6  C5  UNL     1     147.918 162.314 167.542  0.00  0.00    +0.000 A 
ATOM      7  C14 UNL     1     146.789 161.535 167.563  0.00  0.00    +0.000 A 
ATOM      8  C15 UNL     1     146.644 160.128 167.934  0.00  0.00    +0.000 C 
ATOM      9  N3  UNL     1     145.770 162.324 167.138  0.00  0.00    +0.000 NA
ATOM     10  C16 UNL     1     146.255 163.540 166.867  0.00  0.00    +0.000 A 
ATOM     11  C17 UNL     1     145.667 164.720 166.409  0.00  0.00    +0.000 A 
ENDROOT
BRANCH   6  12
ATOM     12  C6  UNL     1     149.284 161.935 167.883  0.00  0.00    +0.000 C 
ATOM     13  O1  UNL     1     150.064 161.628 166.926  0.00  0.00    +0.000 OA
ATOM     14  N2  UNL     1     149.854 161.871 169.167  0.00  0.00    +0.000 N 
ATOM     15  H6  UNL     1     149.284 162.125 169.989  0.00  0.00    +0.000 HD
BRANCH  14  16
ATOM     16  C7  UNL     1     151.259 161.465 169.369  0.00  0.00    +0.000 C 
BRANCH  16  17
ATOM     17  C8  UNL     1     151.404 160.030 169.627  0.00  0.00    +0.000 A 
ATOM     18  C9  UNL     1     152.614 159.384 169.367  0.00  0.00    +0.000 A 
ATOM     19  C10 UNL     1     152.809 158.047 169.593  0.00  0.00    +0.000 A 
ATOM     20  C11 UNL     1     151.773 157.283 170.101  0.00  0.00    +0.000 A 
ATOM     21  C12 UNL     1     150.578 157.902 170.362  0.00  0.00    +0.000 A 
ATOM     22  C13 UNL     1     150.400 159.265 170.126  0.00  0.00    +0.000 A 
ENDBRANCH  16  17
ENDBRANCH  14  16
ENDBRANCH   6  12
TORSDOF 3
ENDMDL
