MODEL 1
REMARK VINA RESULT:      -5.1      0.000      0.000
REMARK  Name = ./3D_structures\o41_MMV1579782_3D.pdb
REMARK  4 active torsions:
REMARK  status: ('A' for Active; 'I' for Inactive)
REMARK    1  A    between atoms: C1_1  and  C2_2
REMARK    2  A    between atoms: C6_6  and  C7_7
REMARK    3  A    between atoms: C7_7  and  C8_8
REMARK    4  A    between atoms: N1_10  and  C9_11
REMARK                            x       y       z     vdW  Elec       q    Type
REMARK                         _______ _______ _______ _____ _____    ______ ____
ROOT
ATOM      1  C8  UNL     1     154.607 157.884 167.260  0.00  0.00    +0.000 C 
ATOM      2  O1  UNL     1     154.913 157.297 166.190  0.00  0.00    +0.000 OA
ATOM      3  N1  UNL     1     154.102 159.196 167.150  0.00  0.00    +0.000 N 
ATOM      4  H9  UNL     1     153.841 159.704 168.020  0.00  0.00    +0.000 HD
ENDROOT
BRANCH   3   5
ATOM      5  C9  UNL     1     153.937 159.853 165.869  0.00  0.00    +0.000 C 
ATOM      6  C10 UNL     1     152.684 160.692 165.807  0.00  0.00    +0.000 C 
ATOM      7  C11 UNL     1     153.132 161.819 164.876  0.00  0.00    +0.000 C 
ATOM      8  O2  UNL     1     154.426 162.099 165.387  0.00  0.00    +0.000 OA
ATOM      9  C12 UNL     1     154.999 160.866 165.672  0.00  0.00    +0.000 C 
ATOM     10  O3  UNL     1     156.228 160.639 165.754  0.00  0.00    +0.000 OA
ENDBRANCH   3   5
BRANCH   1  11
ATOM     11  C7  UNL     1     154.787 157.185 168.565  0.00  0.00    +0.000 C 
BRANCH  11  17
ATOM     12  C1  UNL     1     159.642 158.470 168.434  0.00  0.00    +0.000 C 
ATOM     13  C2  UNL     1     158.350 158.280 169.159  0.00  0.00    +0.000 A 
ATOM     14  C3  UNL     1     158.271 158.558 170.508  0.00  0.00    +0.000 A 
ATOM     15  C4  UNL     1     157.090 158.398 171.229  0.00  0.00    +0.000 A 
ATOM     16  C5  UNL     1     155.949 157.949 170.597  0.00  0.00    +0.000 A 
ATOM     17  C6  UNL     1     156.015 157.668 169.246  0.00  0.00    +0.000 A 
ATOM     18  C13 UNL     1     157.204 157.833 168.534  0.00  0.00    +0.000 A 
ENDBRANCH  11  17
ENDBRANCH   1  11
TORSDOF 3
ENDMDL
MODEL 2
REMARK VINA RESULT:      -5.1      6.564      9.223
REMARK  Name = ./3D_structures\o41_MMV1579782_3D.pdb
REMARK  4 active torsions:
REMARK  status: ('A' for Active; 'I' for Inactive)
REMARK    1  A    between atoms: C1_1  and  C2_2
REMARK    2  A    between atoms: C6_6  and  C7_7
REMARK    3  A    between atoms: C7_7  and  C8_8
REMARK    4  A    between atoms: N1_10  and  C9_11
REMARK                            x       y       z     vdW  Elec       q    Type
REMARK                         _______ _______ _______ _____ _____    ______ ____
ROOT
ATOM      1  C8  UNL     1     149.704 165.899 166.498  0.00  0.00    +0.000 C 
ATOM      2  O1  UNL     1     149.574 166.048 167.741  0.00  0.00    +0.000 OA
ATOM      3  N1  UNL     1     148.521 165.776 165.739  0.00  0.00    +0.000 N 
ATOM      4  H9  UNL     1     148.602 165.652 164.709  0.00  0.00    +0.000 HD
ENDROOT
BRANCH   3   5
ATOM      5  C9  UNL     1     147.207 165.819 166.349  0.00  0.00    +0.000 C 
ATOM      6  C10 UNL     1     146.274 166.771 165.642  0.00  0.00    +0.000 C 
ATOM      7  C11 UNL     1     144.931 166.069 165.846  0.00  0.00    +0.000 C 
ATOM      8  O2  UNL     1     145.282 164.721 165.576  0.00  0.00    +0.000 OA
ATOM      9  C12 UNL     1     146.519 164.521 166.174  0.00  0.00    +0.000 C 
ATOM     10  O3  UNL     1     146.988 163.410 166.515  0.00  0.00    +0.000 OA
ENDBRANCH   3   5
BRANCH   1  11
ATOM     11  C7  UNL     1     151.068 165.857 165.896  0.00  0.00    +0.000 C 
BRANCH  11  17
ATOM     12  C1  UNL     1     151.556 161.035 167.220  0.00  0.00    +0.000 C 
ATOM     13  C2  UNL     1     151.674 162.146 166.229  0.00  0.00    +0.000 A 
ATOM     14  C3  UNL     1     152.149 161.888 164.960  0.00  0.00    +0.000 A 
ATOM     15  C4  UNL     1     152.278 162.890 163.999  0.00  0.00    +0.000 A 
ATOM     16  C5  UNL     1     151.925 164.188 164.302  0.00  0.00    +0.000 A 
ATOM     17  C6  UNL     1     151.448 164.459 165.570  0.00  0.00    +0.000 A 
ATOM     18  C13 UNL     1     151.324 163.448 166.524  0.00  0.00    +0.000 A 
ENDBRANCH  11  17
ENDBRANCH   1  11
TORSDOF 3
ENDMDL
MODEL 3
REMARK VINA RESULT:      -5.0      8.493     10.307
REMARK  Name = ./3D_structures\o41_MMV1579782_3D.pdb
REMARK  4 active torsions:
REMARK  status: ('A' for Active; 'I' for Inactive)
REMARK    1  A    between atoms: C1_1  and  C2_2
REMARK    2  A    between atoms: C6_6  and  C7_7
REMARK    3  A    between atoms: C7_7  and  C8_8
REMARK    4  A    between atoms: N1_10  and  C9_11
REMARK                            x       y       z     vdW  Elec       q    Type
REMARK                         _______ _______ _______ _____ _____    ______ ____
ROOT
ATOM      1  C8  UNL     1     147.766 151.666 170.058  0.00  0.00    +0.000 C 
ATOM      2  O1  UNL     1     146.719 150.978 170.171  0.00  0.00    +0.000 OA
ATOM      3  N1  UNL     1     148.231 151.918 168.751  0.00  0.00    +0.000 N 
ATOM      4  H9  UNL     1     149.096 152.484 168.631  0.00  0.00    +0.000 HD
ENDROOT
BRANCH   3   5
ATOM      5  C9  UNL     1     147.544 151.414 167.579  0.00  0.00    +0.000 C 
ATOM      6  C10 UNL     1     146.612 152.436 166.973  0.00  0.00    +0.000 C 
ATOM      7  C11 UNL     1     146.702 152.071 165.491  0.00  0.00    +0.000 C 
ATOM      8  O2  UNL     1     148.099 151.868 165.342  0.00  0.00    +0.000 OA
ATOM      9  C12 UNL     1     148.508 151.184 166.479  0.00  0.00    +0.000 C 
ATOM     10  O3  UNL     1     149.539 150.477 166.568  0.00  0.00    +0.000 OA
ENDBRANCH   3   5
BRANCH   1  11
ATOM     11  C7  UNL     1     148.454 152.171 171.282  0.00  0.00    +0.000 C 
BRANCH  11  17
ATOM     12  C1  UNL     1     147.107 156.956 170.551  0.00  0.00    +0.000 C 
ATOM     13  C2  UNL     1     148.139 155.898 170.768  0.00  0.00    +0.000 A 
ATOM     14  C3  UNL     1     149.473 156.240 170.826  0.00  0.00    +0.000 A 
ATOM     15  C4  UNL     1     150.474 155.290 171.027  0.00  0.00    +0.000 A 
ATOM     16  C5  UNL     1     150.143 153.959 171.176  0.00  0.00    +0.000 A 
ATOM     17  C6  UNL     1     148.809 153.604 171.121  0.00  0.00    +0.000 A 
ATOM     18  C13 UNL     1     147.817 154.565 170.919  0.00  0.00    +0.000 A 
ENDBRANCH  11  17
ENDBRANCH   1  11
TORSDOF 3
ENDMDL
MODEL 4
REMARK VINA RESULT:      -5.0     11.476     13.517
REMARK  Name = ./3D_structures\o41_MMV1579782_3D.pdb
REMARK  4 active torsions:
REMARK  status: ('A' for Active; 'I' for Inactive)
REMARK    1  A    between atoms: C1_1  and  C2_2
REMARK    2  A    between atoms: C6_6  and  C7_7
REMARK    3  A    between atoms: C7_7  and  C8_8
REMARK    4  A    between atoms: N1_10  and  C9_11
REMARK                            x       y       z     vdW  Elec       q    Type
REMARK                         _______ _______ _______ _____ _____    ______ ____
ROOT
ATOM      1  C8  UNL     1     143.587 164.008 166.388  0.00  0.00    +0.000 C 
ATOM      2  O1  UNL     1     143.839 163.760 167.596  0.00  0.00    +0.000 OA
ATOM      3  N1  UNL     1     144.378 164.989 165.756  0.00  0.00    +0.000 N 
ATOM      4  H9  UNL     1     144.189 165.212 164.757  0.00  0.00    +0.000 HD
ENDROOT
BRANCH   3   5
ATOM      5  C9  UNL     1     145.438 165.690 166.453  0.00  0.00    +0.000 C 
ATOM      6  C10 UNL     1     146.789 165.051 166.241  0.00  0.00    +0.000 C 
ATOM      7  C11 UNL     1     147.702 166.276 166.287  0.00  0.00    +0.000 C 
ATOM      8  O2  UNL     1     146.965 167.198 165.500  0.00  0.00    +0.000 OA
ATOM      9  C12 UNL     1     145.635 167.035 165.865  0.00  0.00    +0.000 C 
ATOM     10  O3  UNL     1     144.732 167.891 165.721  0.00  0.00    +0.000 OA
ENDBRANCH   3   5
BRANCH   1  11
ATOM     11  C7  UNL     1     142.490 163.271 165.696  0.00  0.00    +0.000 C 
BRANCH  11  17
ATOM     12  C1  UNL     1     142.858 162.961 160.695  0.00  0.00    +0.000 C 
ATOM     13  C2  UNL     1     143.169 162.470 162.070  0.00  0.00    +0.000 A 
ATOM     14  C3  UNL     1     143.964 161.355 162.238  0.00  0.00    +0.000 A 
ATOM     15  C4  UNL     1     144.284 160.857 163.500  0.00  0.00    +0.000 A 
ATOM     16  C5  UNL     1     143.804 161.481 164.632  0.00  0.00    +0.000 A 
ATOM     17  C6  UNL     1     143.007 162.599 164.477  0.00  0.00    +0.000 A 
ATOM     18  C13 UNL     1     142.694 163.088 163.208  0.00  0.00    +0.000 A 
ENDBRANCH  11  17
ENDBRANCH   1  11
TORSDOF 3
ENDMDL
MODEL 5
REMARK VINA RESULT:      -5.0      3.256      4.637
REMARK  Name = ./3D_structures\o41_MMV1579782_3D.pdb
REMARK  4 active torsions:
REMARK  status: ('A' for Active; 'I' for Inactive)
REMARK    1  A    between atoms: C1_1  and  C2_2
REMARK    2  A    between atoms: C6_6  and  C7_7
REMARK    3  A    between atoms: C7_7  and  C8_8
REMARK    4  A    between atoms: N1_10  and  C9_11
REMARK                            x       y       z     vdW  Elec       q    Type
REMARK                         _______ _______ _______ _____ _____    ______ ____
ROOT
ATOM      1  C8  UNL     1     158.304 158.929 167.775  0.00  0.00    +0.000 C 
ATOM      2  O1  UNL     1     157.610 159.831 167.238  0.00  0.00    +0.000 OA
ATOM      3  N1  UNL     1     158.393 157.697 167.095  0.00  0.00    +0.000 N 
ATOM      4  H9  UNL     1     158.962 156.935 167.519  0.00  0.00    +0.000 HD
ENDROOT
BRANCH   3   5
ATOM      5  C9  UNL     1     157.721 157.463 165.833  0.00  0.00    +0.000 C 
ATOM      6  C10 UNL     1     158.539 156.612 164.893  0.00  0.00    +0.000 C 
ATOM      7  C11 UNL     1     157.437 155.860 164.146  0.00  0.00    +0.000 C 
ATOM      8  O2  UNL     1     156.569 155.513 165.214  0.00  0.00    +0.000 OA
ATOM      9  C12 UNL     1     156.518 156.627 166.041  0.00  0.00    +0.000 C 
ATOM     10  O3  UNL     1     155.594 156.891 166.846  0.00  0.00    +0.000 OA
ENDBRANCH   3   5
BRANCH   1  11
ATOM     11  C7  UNL     1     158.985 159.197 169.076  0.00  0.00    +0.000 C 
BRANCH  11  17
ATOM     12  C1  UNL     1     156.525 161.678 172.685  0.00  0.00    +0.000 C 
ATOM     13  C2  UNL     1     156.824 160.436 171.912  0.00  0.00    +0.000 A 
ATOM     14  C3  UNL     1     156.171 159.261 172.218  0.00  0.00    +0.000 A 
ATOM     15  C4  UNL     1     156.415 158.075 171.526  0.00  0.00    +0.000 A 
ATOM     16  C5  UNL     1     157.334 158.051 170.499  0.00  0.00    +0.000 A 
ATOM     17  C6  UNL     1     157.995 159.223 170.182  0.00  0.00    +0.000 A 
ATOM     18  C13 UNL     1     157.742 160.403 170.882  0.00  0.00    +0.000 A 
ENDBRANCH  11  17
ENDBRANCH   1  11
TORSDOF 3
ENDMDL
MODEL 6
REMARK VINA RESULT:      -4.9      2.214      5.773
REMARK  Name = ./3D_structures\o41_MMV1579782_3D.pdb
REMARK  4 active torsions:
REMARK  status: ('A' for Active; 'I' for Inactive)
REMARK    1  A    between atoms: C1_1  and  C2_2
REMARK    2  A    between atoms: C6_6  and  C7_7
REMARK    3  A    between atoms: C7_7  and  C8_8
REMARK    4  A    between atoms: N1_10  and  C9_11
REMARK                            x       y       z     vdW  Elec       q    Type
REMARK                         _______ _______ _______ _____ _____    ______ ____
ROOT
ATOM      1  C8  UNL     1     155.202 157.716 167.545  0.00  0.00    +0.000 C 
ATOM      2  O1  UNL     1     154.413 156.907 168.098  0.00  0.00    +0.000 OA
ATOM      3  N1  UNL     1     156.075 158.438 168.386  0.00  0.00    +0.000 N 
ATOM      4  H9  UNL     1     156.738 159.113 167.952  0.00  0.00    +0.000 HD
ENDROOT
BRANCH   3   5
ATOM      5  C9  UNL     1     156.076 158.265 169.824  0.00  0.00    +0.000 C 
ATOM      6  C10 UNL     1     157.459 158.378 170.418  0.00  0.00    +0.000 C 
ATOM      7  C11 UNL     1     157.142 158.988 171.784  0.00  0.00    +0.000 C 
ATOM      8  O2  UNL     1     156.188 159.977 171.427  0.00  0.00    +0.000 OA
ATOM      9  C12 UNL     1     155.366 159.390 170.475  0.00  0.00    +0.000 C 
ATOM     10  O3  UNL     1     154.198 159.753 170.202  0.00  0.00    +0.000 OA
ENDBRANCH   3   5
BRANCH   1  11
ATOM     11  C7  UNL     1     155.180 157.875 166.061  0.00  0.00    +0.000 C 
BRANCH  11  17
ATOM     12  C1  UNL     1     151.794 161.572 165.727  0.00  0.00    +0.000 C 
ATOM     13  C2  UNL     1     153.174 161.030 165.544  0.00  0.00    +0.000 A 
ATOM     14  C3  UNL     1     154.164 161.834 165.018  0.00  0.00    +0.000 A 
ATOM     15  C4  UNL     1     155.467 161.377 164.826  0.00  0.00    +0.000 A 
ATOM     16  C5  UNL     1     155.801 160.083 165.167  0.00  0.00    +0.000 A 
ATOM     17  C6  UNL     1     154.819 159.268 165.695  0.00  0.00    +0.000 A 
ATOM     18  C13 UNL     1     153.518 159.738 165.882  0.00  0.00    +0.000 A 
ENDBRANCH  11  17
ENDBRANCH   1  11
TORSDOF 3
ENDMDL
MODEL 7
REMARK VINA RESULT:      -4.9      3.715      5.265
REMARK  Name = ./3D_structures\o41_MMV1579782_3D.pdb
REMARK  4 active torsions:
REMARK  status: ('A' for Active; 'I' for Inactive)
REMARK    1  A    between atoms: C1_1  and  C2_2
REMARK    2  A    between atoms: C6_6  and  C7_7
REMARK    3  A    between atoms: C7_7  and  C8_8
REMARK    4  A    between atoms: N1_10  and  C9_11
REMARK                            x       y       z     vdW  Elec       q    Type
REMARK                         _______ _______ _______ _____ _____    ______ ____
ROOT
ATOM      1  C8  UNL     1     156.705 158.429 170.881  0.00  0.00    +0.000 C 
ATOM      2  O1  UNL     1     157.774 158.132 171.474  0.00  0.00    +0.000 OA
ATOM      3  N1  UNL     1     156.404 159.801 170.750  0.00  0.00    +0.000 N 
ATOM      4  H9  UNL     1     155.525 160.073 170.263  0.00  0.00    +0.000 HD
ENDROOT
BRANCH   3   5
ATOM      5  C9  UNL     1     157.276 160.834 171.271  0.00  0.00    +0.000 C 
ATOM      6  C10 UNL     1     157.404 162.009 170.332  0.00  0.00    +0.000 C 
ATOM      7  C11 UNL     1     157.581 163.158 171.324  0.00  0.00    +0.000 C 
ATOM      8  O2  UNL     1     156.600 162.835 172.297  0.00  0.00    +0.000 OA
ATOM      9  C12 UNL     1     156.672 161.459 172.469  0.00  0.00    +0.000 C 
ATOM     10  O3  UNL     1     156.284 160.833 173.483  0.00  0.00    +0.000 OA
ENDBRANCH   3   5
BRANCH   1  11
ATOM     11  C7  UNL     1     155.825 157.345 170.355  0.00  0.00    +0.000 C 
BRANCH  11  17
ATOM     12  C1  UNL     1     158.128 156.341 166.005  0.00  0.00    +0.000 C 
ATOM     13  C2  UNL     1     156.965 156.851 166.791  0.00  0.00    +0.000 A 
ATOM     14  C3  UNL     1     155.854 157.340 166.136  0.00  0.00    +0.000 A 
ATOM     15  C4  UNL     1     154.744 157.828 166.824  0.00  0.00    +0.000 A 
ATOM     16  C5  UNL     1     154.731 157.830 168.203  0.00  0.00    +0.000 A 
ATOM     17  C6  UNL     1     155.838 157.342 168.870  0.00  0.00    +0.000 A 
ATOM     18  C13 UNL     1     156.944 156.857 168.170  0.00  0.00    +0.000 A 
ENDBRANCH  11  17
ENDBRANCH   1  11
TORSDOF 3
ENDMDL
MODEL 8
REMARK VINA RESULT:      -4.9      7.774      9.553
REMARK  Name = ./3D_structures\o41_MMV1579782_3D.pdb
REMARK  4 active torsions:
REMARK  status: ('A' for Active; 'I' for Inactive)
REMARK    1  A    between atoms: C1_1  and  C2_2
REMARK    2  A    between atoms: C6_6  and  C7_7
REMARK    3  A    between atoms: C7_7  and  C8_8
REMARK    4  A    between atoms: N1_10  and  C9_11
REMARK                            x       y       z     vdW  Elec       q    Type
REMARK                         _______ _______ _______ _____ _____    ______ ____
ROOT
ATOM      1  C8  UNL     1     148.534 152.405 170.313  0.00  0.00    +0.000 C 
ATOM      2  O1  UNL     1     147.539 151.720 170.667  0.00  0.00    +0.000 OA
ATOM      3  N1  UNL     1     148.775 152.517 168.928  0.00  0.00    +0.000 N 
ATOM      4  H9  UNL     1     149.592 153.078 168.609  0.00  0.00    +0.000 HD
ENDROOT
BRANCH   3   5
ATOM      5  C9  UNL     1     147.924 151.878 167.944  0.00  0.00    +0.000 C 
ATOM      6  C10 UNL     1     146.937 152.838 167.325  0.00  0.00    +0.000 C 
ATOM      7  C11 UNL     1     146.817 152.263 165.913  0.00  0.00    +0.000 C 
ATOM      8  O2  UNL     1     148.176 151.987 165.612  0.00  0.00    +0.000 OA
ATOM      9  C12 UNL     1     148.724 151.457 166.772  0.00  0.00    +0.000 C 
ATOM     10  O3  UNL     1     149.744 150.730 166.826  0.00  0.00    +0.000 OA
ENDBRANCH   3   5
BRANCH   1  11
ATOM     11  C7  UNL     1     149.393 153.051 171.347  0.00  0.00    +0.000 C 
BRANCH  11  17
ATOM     12  C1  UNL     1     151.520 157.457 170.205  0.00  0.00    +0.000 C 
ATOM     13  C2  UNL     1     150.364 156.637 170.675  0.00  0.00    +0.000 A 
ATOM     14  C3  UNL     1     149.178 157.252 171.016  0.00  0.00    +0.000 A 
ATOM     15  C4  UNL     1     148.070 156.531 171.460  0.00  0.00    +0.000 A 
ATOM     16  C5  UNL     1     148.138 155.158 171.569  0.00  0.00    +0.000 A 
ATOM     17  C6  UNL     1     149.321 154.530 171.229  0.00  0.00    +0.000 A 
ATOM     18  C13 UNL     1     150.423 155.263 170.786  0.00  0.00    +0.000 A 
ENDBRANCH  11  17
ENDBRANCH   1  11
TORSDOF 3
ENDMDL
MODEL 9
REMARK VINA RESULT:      -4.9      3.588      4.387
REMARK  Name = ./3D_structures\o41_MMV1579782_3D.pdb
REMARK  4 active torsions:
REMARK  status: ('A' for Active; 'I' for Inactive)
REMARK    1  A    between atoms: C1_1  and  C2_2
REMARK    2  A    between atoms: C6_6  and  C7_7
REMARK    3  A    between atoms: C7_7  and  C8_8
REMARK    4  A    between atoms: N1_10  and  C9_11
REMARK                            x       y       z     vdW  Elec       q    Type
REMARK                         _______ _______ _______ _____ _____    ______ ____
ROOT
ATOM      1  C8  UNL     1     154.998 159.294 170.935  0.00  0.00    +0.000 C 
ATOM      2  O1  UNL     1     155.281 160.511 171.085  0.00  0.00    +0.000 OA
ATOM      3  N1  UNL     1     153.689 158.987 170.509  0.00  0.00    +0.000 N 
ATOM      4  H9  UNL     1     153.431 157.988 170.378  0.00  0.00    +0.000 HD
ENDROOT
BRANCH   3   5
ATOM      5  C9  UNL     1     152.703 160.016 170.251  0.00  0.00    +0.000 C 
ATOM      6  C10 UNL     1     152.072 159.881 168.886  0.00  0.00    +0.000 C 
ATOM      7  C11 UNL     1     150.662 160.404 169.162  0.00  0.00    +0.000 C 
ATOM      8  O2  UNL     1     150.372 159.772 170.399  0.00  0.00    +0.000 OA
ATOM      9  C12 UNL     1     151.538 159.846 171.149  0.00  0.00    +0.000 C 
ATOM     10  O3  UNL     1     151.603 159.778 172.398  0.00  0.00    +0.000 OA
ENDBRANCH   3   5
BRANCH   1  11
ATOM     11  C7  UNL     1     156.034 158.256 171.209  0.00  0.00    +0.000 C 
BRANCH  11  17
ATOM     12  C1  UNL     1     156.996 156.602 166.564  0.00  0.00    +0.000 C 
ATOM     13  C2  UNL     1     157.392 157.316 167.815  0.00  0.00    +0.000 A 
ATOM     14  C3  UNL     1     158.647 157.878 167.918  0.00  0.00    +0.000 A 
ATOM     15  C4  UNL     1     159.064 158.554 169.064  0.00  0.00    +0.000 A 
ATOM     16  C5  UNL     1     158.211 158.679 170.141  0.00  0.00    +0.000 A 
ATOM     17  C6  UNL     1     156.951 158.121 170.049  0.00  0.00    +0.000 A 
ATOM     18  C13 UNL     1     156.546 157.446 168.897  0.00  0.00    +0.000 A 
ENDBRANCH  11  17
ENDBRANCH   1  11
TORSDOF 3
ENDMDL
