MODEL 1
REMARK VINA RESULT:      -5.5      0.000      0.000
REMARK  Name = ./3D_structures\o43_MMV292173_3D.pdb
REMARK  2 active torsions:
REMARK  status: ('A' for Active; 'I' for Inactive)
REMARK    1  A    between atoms: O1_1  and  C1_2
REMARK    2  A    between atoms: C5_7  and  C8_11
REMARK                            x       y       z     vdW  Elec       q    Type
REMARK                         _______ _______ _______ _____ _____    ______ ____
ROOT
ATOM      1  C1  UNL     1     144.489 174.579 165.999  0.00  0.00    +0.000 A 
ATOM      2  C2  UNL     1     144.336 174.824 164.648  0.00  0.00    +0.000 A 
ATOM      3  C3  UNL     1     145.415 174.891 163.791  0.00  0.00    +0.000 A 
ATOM      4  C4  UNL     1     146.665 174.702 164.341  0.00  0.00    +0.000 A 
ATOM      5  N1  UNL     1     147.897 174.704 163.793  0.00  0.00    +0.000 N 
ATOM      6  C5  UNL     1     148.832 174.473 164.727  0.00  0.00    +0.000 A 
ATOM      7  N2  UNL     1     148.196 174.320 165.895  0.00  0.00    +0.000 NA
ATOM      8  C6  UNL     1     146.876 174.455 165.683  0.00  0.00    +0.000 A 
ATOM      9  C7  UNL     1     145.775 174.396 166.511  0.00  0.00    +0.000 A 
ATOM     10  H4  UNL     1     148.072 174.865 162.781  0.00  0.00    +0.000 HD
ENDROOT
BRANCH   6  11
ATOM     11  C8  UNL     1     150.258 174.416 164.443  0.00  0.00    +0.000 A 
ATOM     12  C9  UNL     1     151.204 174.716 165.427  0.00  0.00    +0.000 A 
ATOM     13  C10 UNL     1     152.556 174.663 165.166  0.00  0.00    +0.000 A 
ATOM     14  C11 UNL     1     153.020 174.310 163.918  0.00  0.00    +0.000 A 
ATOM     15  C12 UNL     1     152.114 174.009 162.927  0.00  0.00    +0.000 A 
ATOM     16  C13 UNL     1     150.752 174.067 163.208  0.00  0.00    +0.000 A 
ENDBRANCH   6  11
BRANCH   1  17
ATOM     17  O1  UNL     1     143.394 174.516 166.844  0.00  0.00    +0.000 OA
ATOM     18  H1  UNL     1     143.538 174.738 167.820  0.00  0.00    +0.000 HD
ENDBRANCH   1  17
TORSDOF 2
ENDMDL
MODEL 2
REMARK VINA RESULT:      -5.4      8.831      9.054
REMARK  Name = ./3D_structures\o43_MMV292173_3D.pdb
REMARK  2 active torsions:
REMARK  status: ('A' for Active; 'I' for Inactive)
REMARK    1  A    between atoms: O1_1  and  C1_2
REMARK    2  A    between atoms: C5_7  and  C8_11
REMARK                            x       y       z     vdW  Elec       q    Type
REMARK                         _______ _______ _______ _____ _____    ______ ____
ROOT
ATOM      1  C1  UNL     1     143.928 165.976 165.652  0.00  0.00    +0.000 A 
ATOM      2  C2  UNL     1     144.100 164.606 165.705  0.00  0.00    +0.000 A 
ATOM      3  C3  UNL     1     145.346 164.032 165.856  0.00  0.00    +0.000 A 
ATOM      4  C4  UNL     1     146.423 164.887 165.952  0.00  0.00    +0.000 A 
ATOM      5  N1  UNL     1     147.742 164.655 166.102  0.00  0.00    +0.000 N 
ATOM      6  C5  UNL     1     148.424 165.810 166.147  0.00  0.00    +0.000 A 
ATOM      7  N2  UNL     1     147.534 166.802 166.024  0.00  0.00    +0.000 NA
ATOM      8  C6  UNL     1     146.309 166.262 165.904  0.00  0.00    +0.000 A 
ATOM      9  C7  UNL     1     145.049 166.802 165.752  0.00  0.00    +0.000 A 
ATOM     10  H4  UNL     1     148.152 163.702 166.171  0.00  0.00    +0.000 HD
ENDROOT
BRANCH   6  11
ATOM     11  C8  UNL     1     149.869 165.887 166.302  0.00  0.00    +0.000 A 
ATOM     12  C9  UNL     1     150.724 165.739 165.206  0.00  0.00    +0.000 A 
ATOM     13  C10 UNL     1     152.092 165.811 165.344  0.00  0.00    +0.000 A 
ATOM     14  C11 UNL     1     152.666 166.033 166.577  0.00  0.00    +0.000 A 
ATOM     15  C12 UNL     1     151.852 166.183 167.677  0.00  0.00    +0.000 A 
ATOM     16  C13 UNL     1     150.471 166.107 167.519  0.00  0.00    +0.000 A 
ENDBRANCH   6  11
BRANCH   1  17
ATOM     17  O1  UNL     1     142.671 166.534 165.500  0.00  0.00    +0.000 OA
ATOM     18  H1  UNL     1     142.023 166.076 164.874  0.00  0.00    +0.000 HD
ENDBRANCH   1  17
TORSDOF 2
ENDMDL
MODEL 3
REMARK VINA RESULT:      -5.3     18.014     19.089
REMARK  Name = ./3D_structures\o43_MMV292173_3D.pdb
REMARK  2 active torsions:
REMARK  status: ('A' for Active; 'I' for Inactive)
REMARK    1  A    between atoms: O1_1  and  C1_2
REMARK    2  A    between atoms: C5_7  and  C8_11
REMARK                            x       y       z     vdW  Elec       q    Type
REMARK                         _______ _______ _______ _____ _____    ______ ____
ROOT
ATOM      1  C1  UNL     1     156.586 156.847 166.377  0.00  0.00    +0.000 A 
ATOM      2  C2  UNL     1     157.909 157.245 166.415  0.00  0.00    +0.000 A 
ATOM      3  C3  UNL     1     158.412 158.012 167.445  0.00  0.00    +0.000 A 
ATOM      4  C4  UNL     1     157.534 158.371 168.446  0.00  0.00    +0.000 A 
ATOM      5  N1  UNL     1     157.702 159.099 169.568  0.00  0.00    +0.000 N 
ATOM      6  C5  UNL     1     156.551 159.188 170.251  0.00  0.00    +0.000 A 
ATOM      7  N2  UNL     1     155.626 158.509 169.561  0.00  0.00    +0.000 NA
ATOM      8  C6  UNL     1     156.204 158.003 168.458  0.00  0.00    +0.000 A 
ATOM      9  C7  UNL     1     155.734 157.236 167.413  0.00  0.00    +0.000 A 
ATOM     10  H4  UNL     1     158.610 159.524 169.844  0.00  0.00    +0.000 HD
ENDROOT
BRANCH   6  11
ATOM     11  C8  UNL     1     156.412 159.911 171.507  0.00  0.00    +0.000 A 
ATOM     12  C9  UNL     1     157.103 161.105 171.734  0.00  0.00    +0.000 A 
ATOM     13  C10 UNL     1     156.978 161.795 172.919  0.00  0.00    +0.000 A 
ATOM     14  C11 UNL     1     156.161 161.327 173.925  0.00  0.00    +0.000 A 
ATOM     15  C12 UNL     1     155.467 160.155 173.733  0.00  0.00    +0.000 A 
ATOM     16  C13 UNL     1     155.605 159.470 172.529  0.00  0.00    +0.000 A 
ENDBRANCH   6  11
BRANCH   1  17
ATOM     17  O1  UNL     1     156.099 156.078 165.335  0.00  0.00    +0.000 OA
ATOM     18  H1  UNL     1     155.100 156.066 165.184  0.00  0.00    +0.000 HD
ENDBRANCH   1  17
TORSDOF 2
ENDMDL
MODEL 4
REMARK VINA RESULT:      -5.2      8.891      9.011
REMARK  Name = ./3D_structures\o43_MMV292173_3D.pdb
REMARK  2 active torsions:
REMARK  status: ('A' for Active; 'I' for Inactive)
REMARK    1  A    between atoms: O1_1  and  C1_2
REMARK    2  A    between atoms: C5_7  and  C8_11
REMARK                            x       y       z     vdW  Elec       q    Type
REMARK                         _______ _______ _______ _____ _____    ______ ____
ROOT
ATOM      1  C1  UNL     1     144.309 165.017 166.269  0.00  0.00    +0.000 A 
ATOM      2  C2  UNL     1     144.336 166.327 165.831  0.00  0.00    +0.000 A 
ATOM      3  C3  UNL     1     145.519 167.005 165.627  0.00  0.00    +0.000 A 
ATOM      4  C4  UNL     1     146.688 166.318 165.880  0.00  0.00    +0.000 A 
ATOM      5  N1  UNL     1     147.982 166.682 165.784  0.00  0.00    +0.000 N 
ATOM      6  C5  UNL     1     148.787 165.669 166.139  0.00  0.00    +0.000 A 
ATOM      7  N2  UNL     1     148.002 164.636 166.471  0.00  0.00    +0.000 NA
ATOM      8  C6  UNL     1     146.720 165.010 166.319  0.00  0.00    +0.000 A 
ATOM      9  C7  UNL     1     145.519 164.362 166.514  0.00  0.00    +0.000 A 
ATOM     10  H4  UNL     1     148.290 167.625 165.473  0.00  0.00    +0.000 HD
ENDROOT
BRANCH   6  11
ATOM     11  C8  UNL     1     150.240 165.756 166.139  0.00  0.00    +0.000 A 
ATOM     12  C9  UNL     1     150.956 165.897 167.331  0.00  0.00    +0.000 A 
ATOM     13  C10 UNL     1     152.331 165.979 167.340  0.00  0.00    +0.000 A 
ATOM     14  C11 UNL     1     153.048 165.924 166.165  0.00  0.00    +0.000 A 
ATOM     15  C12 UNL     1     152.373 165.786 164.973  0.00  0.00    +0.000 A 
ATOM     16  C13 UNL     1     150.983 165.704 164.983  0.00  0.00    +0.000 A 
ENDBRANCH   6  11
BRANCH   1  17
ATOM     17  O1  UNL     1     143.112 164.352 166.469  0.00  0.00    +0.000 OA
ATOM     18  H1  UNL     1     143.034 163.752 167.279  0.00  0.00    +0.000 HD
ENDBRANCH   1  17
TORSDOF 2
ENDMDL
MODEL 5
REMARK VINA RESULT:      -5.1      9.240      9.515
REMARK  Name = ./3D_structures\o43_MMV292173_3D.pdb
REMARK  2 active torsions:
REMARK  status: ('A' for Active; 'I' for Inactive)
REMARK    1  A    between atoms: O1_1  and  C1_2
REMARK    2  A    between atoms: C5_7  and  C8_11
REMARK                            x       y       z     vdW  Elec       q    Type
REMARK                         _______ _______ _______ _____ _____    ______ ____
ROOT
ATOM      1  C1  UNL     1     146.460 165.230 168.875  0.00  0.00    +0.000 A 
ATOM      2  C2  UNL     1     145.876 165.538 167.661  0.00  0.00    +0.000 A 
ATOM      3  C3  UNL     1     146.620 165.677 166.508  0.00  0.00    +0.000 A 
ATOM      4  C4  UNL     1     147.983 165.497 166.614  0.00  0.00    +0.000 A 
ATOM      5  N1  UNL     1     148.971 165.561 165.700  0.00  0.00    +0.000 N 
ATOM      6  C5  UNL     1     150.160 165.311 166.268  0.00  0.00    +0.000 A 
ATOM      7  N2  UNL     1     149.937 165.082 167.568  0.00  0.00    +0.000 NA
ATOM      8  C6  UNL     1     148.618 165.190 167.800  0.00  0.00    +0.000 A 
ATOM      9  C7  UNL     1     147.845 165.058 168.934  0.00  0.00    +0.000 A 
ATOM     10  H4  UNL     1     148.808 165.778 164.696  0.00  0.00    +0.000 HD
ENDROOT
BRANCH   6  11
ATOM     11  C8  UNL     1     151.418 165.308 165.537  0.00  0.00    +0.000 A 
ATOM     12  C9  UNL     1     152.352 166.335 165.701  0.00  0.00    +0.000 A 
ATOM     13  C10 UNL     1     153.546 166.339 165.014  0.00  0.00    +0.000 A 
ATOM     14  C11 UNL     1     153.858 165.324 164.136  0.00  0.00    +0.000 A 
ATOM     15  C12 UNL     1     152.959 164.298 163.951  0.00  0.00    +0.000 A 
ATOM     16  C13 UNL     1     151.758 164.310 164.655  0.00  0.00    +0.000 A 
ENDBRANCH   6  11
BRANCH   1  17
ATOM     17  O1  UNL     1     145.698 165.095 170.023  0.00  0.00    +0.000 OA
ATOM     18  H1  UNL     1     146.068 165.475 170.883  0.00  0.00    +0.000 HD
ENDBRANCH   1  17
TORSDOF 2
ENDMDL
MODEL 6
REMARK VINA RESULT:      -5.1     17.671     19.004
REMARK  Name = ./3D_structures\o43_MMV292173_3D.pdb
REMARK  2 active torsions:
REMARK  status: ('A' for Active; 'I' for Inactive)
REMARK    1  A    between atoms: O1_1  and  C1_2
REMARK    2  A    between atoms: C5_7  and  C8_11
REMARK                            x       y       z     vdW  Elec       q    Type
REMARK                         _______ _______ _______ _____ _____    ______ ____
ROOT
ATOM      1  C1  UNL     1     156.787 156.605 166.355  0.00  0.00    +0.000 A 
ATOM      2  C2  UNL     1     155.653 157.222 165.862  0.00  0.00    +0.000 A 
ATOM      3  C3  UNL     1     154.850 158.016 166.655  0.00  0.00    +0.000 A 
ATOM      4  C4  UNL     1     155.227 158.172 167.972  0.00  0.00    +0.000 A 
ATOM      5  N1  UNL     1     154.675 158.866 168.987  0.00  0.00    +0.000 N 
ATOM      6  C5  UNL     1     155.399 158.724 170.108  0.00  0.00    +0.000 A 
ATOM      7  N2  UNL     1     156.434 157.926 169.813  0.00  0.00    +0.000 NA
ATOM      8  C6  UNL     1     156.348 157.580 168.517  0.00  0.00    +0.000 A 
ATOM      9  C7  UNL     1     157.128 156.792 167.697  0.00  0.00    +0.000 A 
ATOM     10  H4  UNL     1     153.805 159.427 168.891  0.00  0.00    +0.000 HD
ENDROOT
BRANCH   6  11
ATOM     11  C8  UNL     1     155.057 159.353 171.374  0.00  0.00    +0.000 A 
ATOM     12  C9  UNL     1     155.937 159.319 172.460  0.00  0.00    +0.000 A 
ATOM     13  C10 UNL     1     155.620 159.913 173.662  0.00  0.00    +0.000 A 
ATOM     14  C11 UNL     1     154.418 160.563 173.833  0.00  0.00    +0.000 A 
ATOM     15  C12 UNL     1     153.529 160.614 172.784  0.00  0.00    +0.000 A 
ATOM     16  C13 UNL     1     153.865 160.008 171.575  0.00  0.00    +0.000 A 
ENDBRANCH   6  11
BRANCH   1  17
ATOM     17  O1  UNL     1     157.580 155.811 165.545  0.00  0.00    +0.000 OA
ATOM     18  H1  UNL     1     158.200 155.151 165.993  0.00  0.00    +0.000 HD
ENDBRANCH   1  17
TORSDOF 2
ENDMDL
MODEL 7
REMARK VINA RESULT:      -5.0     18.510     20.069
REMARK  Name = ./3D_structures\o43_MMV292173_3D.pdb
REMARK  2 active torsions:
REMARK  status: ('A' for Active; 'I' for Inactive)
REMARK    1  A    between atoms: O1_1  and  C1_2
REMARK    2  A    between atoms: C5_7  and  C8_11
REMARK                            x       y       z     vdW  Elec       q    Type
REMARK                         _______ _______ _______ _____ _____    ______ ____
ROOT
ATOM      1  C1  UNL     1     157.522 155.780 164.515  0.00  0.00    +0.000 A 
ATOM      2  C2  UNL     1     158.826 156.231 164.584  0.00  0.00    +0.000 A 
ATOM      3  C3  UNL     1     159.282 156.986 165.645  0.00  0.00    +0.000 A 
ATOM      4  C4  UNL     1     158.377 157.277 166.643  0.00  0.00    +0.000 A 
ATOM      5  N1  UNL     1     158.498 157.976 167.789  0.00  0.00    +0.000 N 
ATOM      6  C5  UNL     1     157.335 157.996 168.458  0.00  0.00    +0.000 A 
ATOM      7  N2  UNL     1     156.449 157.300 167.733  0.00  0.00    +0.000 NA
ATOM      8  C6  UNL     1     157.064 156.853 166.625  0.00  0.00    +0.000 A 
ATOM      9  C7  UNL     1     156.641 156.101 165.549  0.00  0.00    +0.000 A 
ATOM     10  H4  UNL     1     159.383 158.429 168.092  0.00  0.00    +0.000 HD
ENDROOT
BRANCH   6  11
ATOM     11  C8  UNL     1     157.149 158.673 169.732  0.00  0.00    +0.000 A 
ATOM     12  C9  UNL     1     157.520 160.010 169.902  0.00  0.00    +0.000 A 
ATOM     13  C10 UNL     1     157.347 160.659 171.105  0.00  0.00    +0.000 A 
ATOM     14  C11 UNL     1     156.799 160.004 172.186  0.00  0.00    +0.000 A 
ATOM     15  C12 UNL     1     156.424 158.687 172.053  0.00  0.00    +0.000 A 
ATOM     16  C13 UNL     1     156.606 158.047 170.829  0.00  0.00    +0.000 A 
ENDBRANCH   6  11
BRANCH   1  17
ATOM     17  O1  UNL     1     157.082 155.024 163.443  0.00  0.00    +0.000 OA
ATOM     18  H1  UNL     1     156.477 155.470 162.767  0.00  0.00    +0.000 HD
ENDBRANCH   1  17
TORSDOF 2
ENDMDL
MODEL 8
REMARK VINA RESULT:      -5.0     19.721     20.261
REMARK  Name = ./3D_structures\o43_MMV292173_3D.pdb
REMARK  2 active torsions:
REMARK  status: ('A' for Active; 'I' for Inactive)
REMARK    1  A    between atoms: O1_1  and  C1_2
REMARK    2  A    between atoms: C5_7  and  C8_11
REMARK                            x       y       z     vdW  Elec       q    Type
REMARK                         _______ _______ _______ _____ _____    ______ ____
ROOT
ATOM      1  C1  UNL     1     157.059 157.953 170.584  0.00  0.00    +0.000 A 
ATOM      2  C2  UNL     1     158.270 158.588 170.382  0.00  0.00    +0.000 A 
ATOM      3  C3  UNL     1     158.908 158.572 169.159  0.00  0.00    +0.000 A 
ATOM      4  C4  UNL     1     158.284 157.891 168.135  0.00  0.00    +0.000 A 
ATOM      5  N1  UNL     1     158.632 157.689 166.849  0.00  0.00    +0.000 N 
ATOM      6  C5  UNL     1     157.704 156.956 166.216  0.00  0.00    +0.000 A 
ATOM      7  N2  UNL     1     156.743 156.679 167.106  0.00  0.00    +0.000 NA
ATOM      8  C6  UNL     1     157.076 157.241 168.281  0.00  0.00    +0.000 A 
ATOM      9  C7  UNL     1     156.466 157.275 169.517  0.00  0.00    +0.000 A 
ATOM     10  H4  UNL     1     159.507 158.062 166.427  0.00  0.00    +0.000 HD
ENDROOT
BRANCH   6  11
ATOM     11  C8  UNL     1     157.798 156.571 164.816  0.00  0.00    +0.000 A 
ATOM     12  C9  UNL     1     158.112 157.508 163.827  0.00  0.00    +0.000 A 
ATOM     13  C10 UNL     1     158.204 157.151 162.500  0.00  0.00    +0.000 A 
ATOM     14  C11 UNL     1     157.986 155.850 162.103  0.00  0.00    +0.000 A 
ATOM     15  C12 UNL     1     157.674 154.903 163.051  0.00  0.00    +0.000 A 
ATOM     16  C13 UNL     1     157.587 155.281 164.388  0.00  0.00    +0.000 A 
ENDBRANCH   6  11
BRANCH   1  17
ATOM     17  O1  UNL     1     156.434 157.979 171.819  0.00  0.00    +0.000 OA
ATOM     18  H1  UNL     1     157.018 157.969 172.644  0.00  0.00    +0.000 HD
ENDBRANCH   1  17
TORSDOF 2
ENDMDL
MODEL 9
REMARK VINA RESULT:      -5.0     10.969     11.207
REMARK  Name = ./3D_structures\o43_MMV292173_3D.pdb
REMARK  2 active torsions:
REMARK  status: ('A' for Active; 'I' for Inactive)
REMARK    1  A    between atoms: O1_1  and  C1_2
REMARK    2  A    between atoms: C5_7  and  C8_11
REMARK                            x       y       z     vdW  Elec       q    Type
REMARK                         _______ _______ _______ _____ _____    ______ ____
ROOT
ATOM      1  C1  UNL     1     145.161 166.745 165.709  0.00  0.00    +0.000 A 
ATOM      2  C2  UNL     1     144.293 165.672 165.768  0.00  0.00    +0.000 A 
ATOM      3  C3  UNL     1     144.714 164.412 166.141  0.00  0.00    +0.000 A 
ATOM      4  C4  UNL     1     146.049 164.264 166.456  0.00  0.00    +0.000 A 
ATOM      5  N1  UNL     1     146.764 163.192 166.849  0.00  0.00    +0.000 N 
ATOM      6  C5  UNL     1     148.049 163.525 167.045  0.00  0.00    +0.000 A 
ATOM      7  N2  UNL     1     148.165 164.831 166.773  0.00  0.00    +0.000 NA
ATOM      8  C6  UNL     1     146.958 165.301 166.414  0.00  0.00    +0.000 A 
ATOM      9  C7  UNL     1     146.504 166.547 166.036  0.00  0.00    +0.000 A 
ATOM     10  H4  UNL     1     146.354 162.245 166.976  0.00  0.00    +0.000 HD
ENDROOT
BRANCH   6  11
ATOM     11  C8  UNL     1     149.071 162.582 167.473  0.00  0.00    +0.000 A 
ATOM     12  C9  UNL     1     150.418 162.784 167.162  0.00  0.00    +0.000 A 
ATOM     13  C10 UNL     1     151.392 161.896 167.564  0.00  0.00    +0.000 A 
ATOM     14  C11 UNL     1     151.064 160.772 168.290  0.00  0.00    +0.000 A 
ATOM     15  C12 UNL     1     149.746 160.543 168.612  0.00  0.00    +0.000 A 
ATOM     16  C13 UNL     1     148.775 161.452 168.198  0.00  0.00    +0.000 A 
ENDBRANCH   6  11
BRANCH   1  17
ATOM     17  O1  UNL     1     144.721 168.002 165.332  0.00  0.00    +0.000 OA
ATOM     18  H1  UNL     1     145.053 168.797 165.861  0.00  0.00    +0.000 HD
ENDBRANCH   1  17
TORSDOF 2
ENDMDL
