MODEL 1
REMARK VINA RESULT:      -6.5      0.000      0.000
REMARK  Name = ./3D_structures\o44_MMV102270_3D.pdb
REMARK  6 active torsions:
REMARK  status: ('A' for Active; 'I' for Inactive)
REMARK    1  A    between atoms: C1_1  and  O1_2
REMARK    2  A    between atoms: O1_2  and  C2_3
REMARK    3  A    between atoms: C5_6  and  O2_7
REMARK    4  A    between atoms: C10_14  and  C11_15
REMARK    5  A    between atoms: C20_26  and  O7_27
REMARK    6  A    between atoms: O7_27  and  C21_28
REMARK                            x       y       z     vdW  Elec       q    Type
REMARK                         _______ _______ _______ _____ _____    ______ ____
ROOT
ATOM      1  C2  UNL     1     156.481 157.488 169.179  0.00  0.00    +0.000 A 
ATOM      2  C3  UNL     1     156.304 156.963 167.920  0.00  0.00    +0.000 A 
ATOM      3  C4  UNL     1     157.340 157.029 166.983  0.00  0.00    +0.000 A 
ATOM      4  C5  UNL     1     157.142 156.506 165.726  0.00  0.00    +0.000 A 
ATOM      5  C6  UNL     1     158.182 156.586 164.799  0.00  0.00    +0.000 A 
ATOM      6  C7  UNL     1     158.240 156.124 163.390  0.00  0.00    +0.000 C 
ATOM      7  O3  UNL     1     159.536 156.450 162.987  0.00  0.00    +0.000 OA
ATOM      8  C8  UNL     1     160.243 157.089 163.982  0.00  0.00    +0.000 C 
ATOM      9  O4  UNL     1     161.429 157.543 163.961  0.00  0.00    +0.000 OA
ATOM     10  C9  UNL     1     159.369 157.174 165.147  0.00  0.00    +0.000 A 
ATOM     11  C10 UNL     1     159.562 157.702 166.421  0.00  0.00    +0.000 A 
ATOM     12  C18 UNL     1     158.537 157.621 167.329  0.00  0.00    +0.000 A 
ATOM     13  C19 UNL     1     158.723 158.150 168.591  0.00  0.00    +0.000 A 
ATOM     14  C20 UNL     1     157.695 158.077 169.499  0.00  0.00    +0.000 A 
ENDROOT
BRANCH  11  15
ATOM     15  C11 UNL     1     160.827 158.335 166.761  0.00  0.00    +0.000 A 
ATOM     16  C12 UNL     1     160.975 159.692 166.608  0.00  0.00    +0.000 A 
ATOM     17  C13 UNL     1     162.170 160.330 166.926  0.00  0.00    +0.000 A 
ATOM     18  C14 UNL     1     163.247 159.619 167.406  0.00  0.00    +0.000 A 
ATOM     19  O5  UNL     1     164.536 159.989 167.797  0.00  0.00    +0.000 OA
ATOM     20  C15 UNL     1     165.043 158.903 168.592  0.00  0.00    +0.000 C 
ATOM     21  O6  UNL     1     164.338 157.794 168.058  0.00  0.00    +0.000 OA
ATOM     22  C16 UNL     1     163.103 158.259 167.561  0.00  0.00    +0.000 A 
ATOM     23  C17 UNL     1     161.926 157.640 167.247  0.00  0.00    +0.000 A 
ENDBRANCH  11  15
BRANCH   1  25
ATOM     24  C1  UNL     1     154.177 157.955 169.776  0.00  0.00    +0.000 C 
ATOM     25  O1  UNL     1     155.454 157.437 170.148  0.00  0.00    +0.000 OA
ENDBRANCH   1  25
BRANCH   4  26
ATOM     26  O2  UNL     1     155.985 155.902 165.301  0.00  0.00    +0.000 OA
ATOM     27  H5  UNL     1     155.243 155.680 165.914  0.00  0.00    +0.000 HD
ENDBRANCH   4  26
BRANCH  14  28
ATOM     28  O7  UNL     1     157.833 158.584 170.751  0.00  0.00    +0.000 OA
ATOM     29  C21 UNL     1     157.435 159.826 171.228  0.00  0.00    +0.000 C 
ENDBRANCH  14  28
TORSDOF 4
ENDMDL
MODEL 2
REMARK VINA RESULT:      -6.4      5.346      7.966
REMARK  Name = ./3D_structures\o44_MMV102270_3D.pdb
REMARK  6 active torsions:
REMARK  status: ('A' for Active; 'I' for Inactive)
REMARK    1  A    between atoms: C1_1  and  O1_2
REMARK    2  A    between atoms: O1_2  and  C2_3
REMARK    3  A    between atoms: C5_6  and  O2_7
REMARK    4  A    between atoms: C10_14  and  C11_15
REMARK    5  A    between atoms: C20_26  and  O7_27
REMARK    6  A    between atoms: O7_27  and  C21_28
REMARK                            x       y       z     vdW  Elec       q    Type
REMARK                         _______ _______ _______ _____ _____    ______ ____
ROOT
ATOM      1  C2  UNL     1     151.192 159.274 170.048  0.00  0.00    +0.000 A 
ATOM      2  C3  UNL     1     152.208 158.422 169.683  0.00  0.00    +0.000 A 
ATOM      3  C4  UNL     1     153.023 158.734 168.590  0.00  0.00    +0.000 A 
ATOM      4  C5  UNL     1     154.029 157.866 168.234  0.00  0.00    +0.000 A 
ATOM      5  C6  UNL     1     154.829 158.187 167.137  0.00  0.00    +0.000 A 
ATOM      6  C7  UNL     1     155.960 157.440 166.531  0.00  0.00    +0.000 C 
ATOM      7  O3  UNL     1     156.380 158.264 165.486  0.00  0.00    +0.000 OA
ATOM      8  C8  UNL     1     155.603 159.397 165.375  0.00  0.00    +0.000 C 
ATOM      9  O4  UNL     1     155.682 160.346 164.535  0.00  0.00    +0.000 OA
ATOM     10  C9  UNL     1     154.608 159.344 166.439  0.00  0.00    +0.000 A 
ATOM     11  C10 UNL     1     153.586 160.218 166.805  0.00  0.00    +0.000 A 
ATOM     12  C18 UNL     1     152.802 159.899 167.884  0.00  0.00    +0.000 A 
ATOM     13  C19 UNL     1     151.785 160.759 168.245  0.00  0.00    +0.000 A 
ATOM     14  C20 UNL     1     150.993 160.437 169.320  0.00  0.00    +0.000 A 
ENDROOT
BRANCH  11  15
ATOM     15  C11 UNL     1     153.361 161.435 166.039  0.00  0.00    +0.000 A 
ATOM     16  C12 UNL     1     152.518 161.414 164.956  0.00  0.00    +0.000 A 
ATOM     17  C13 UNL     1     152.278 162.558 164.202  0.00  0.00    +0.000 A 
ATOM     18  C14 UNL     1     152.882 163.754 164.519  0.00  0.00    +0.000 A 
ATOM     19  O5  UNL     1     152.827 165.030 163.953  0.00  0.00    +0.000 OA
ATOM     20  C15 UNL     1     153.319 165.937 164.955  0.00  0.00    +0.000 C 
ATOM     21  O6  UNL     1     154.198 165.106 165.696  0.00  0.00    +0.000 OA
ATOM     22  C16 UNL     1     153.728 163.780 165.604  0.00  0.00    +0.000 A 
ATOM     23  C17 UNL     1     153.958 162.651 166.340  0.00  0.00    +0.000 A 
ENDBRANCH  11  15
BRANCH   1  25
ATOM     24  C1  UNL     1     150.146 157.612 171.472  0.00  0.00    +0.000 C 
ATOM     25  O1  UNL     1     150.351 158.986 171.147  0.00  0.00    +0.000 OA
ENDBRANCH   1  25
BRANCH   4  26
ATOM     26  O2  UNL     1     154.315 156.689 168.880  0.00  0.00    +0.000 OA
ATOM     27  H5  UNL     1     153.732 156.311 169.582  0.00  0.00    +0.000 HD
ENDBRANCH   4  26
BRANCH  14  28
ATOM     28  O7  UNL     1     149.982 161.254 169.711  0.00  0.00    +0.000 OA
ATOM     29  C21 UNL     1     149.845 162.620 169.498  0.00  0.00    +0.000 C 
ENDBRANCH  14  28
TORSDOF 4
ENDMDL
MODEL 3
REMARK VINA RESULT:      -6.1      4.729      8.586
REMARK  Name = ./3D_structures\o44_MMV102270_3D.pdb
REMARK  6 active torsions:
REMARK  status: ('A' for Active; 'I' for Inactive)
REMARK    1  A    between atoms: C1_1  and  O1_2
REMARK    2  A    between atoms: O1_2  and  C2_3
REMARK    3  A    between atoms: C5_6  and  O2_7
REMARK    4  A    between atoms: C10_14  and  C11_15
REMARK    5  A    between atoms: C20_26  and  O7_27
REMARK    6  A    between atoms: O7_27  and  C21_28
REMARK                            x       y       z     vdW  Elec       q    Type
REMARK                         _______ _______ _______ _____ _____    ______ ____
ROOT
ATOM      1  C2  UNL     1     157.010 157.594 166.214  0.00  0.00    +0.000 A 
ATOM      2  C3  UNL     1     156.303 157.319 167.361  0.00  0.00    +0.000 A 
ATOM      3  C4  UNL     1     155.157 158.059 167.669  0.00  0.00    +0.000 A 
ATOM      4  C5  UNL     1     154.466 157.777 168.824  0.00  0.00    +0.000 A 
ATOM      5  C6  UNL     1     153.328 158.527 169.122  0.00  0.00    +0.000 A 
ATOM      6  C7  UNL     1     152.413 158.449 170.288  0.00  0.00    +0.000 C 
ATOM      7  O3  UNL     1     151.451 159.424 170.021  0.00  0.00    +0.000 OA
ATOM      8  C8  UNL     1     151.711 160.101 168.849  0.00  0.00    +0.000 C 
ATOM      9  O4  UNL     1     151.067 161.055 168.312  0.00  0.00    +0.000 OA
ATOM     10  C9  UNL     1     152.919 159.521 168.273  0.00  0.00    +0.000 A 
ATOM     11  C10 UNL     1     153.624 159.802 167.105  0.00  0.00    +0.000 A 
ATOM     12  C18 UNL     1     154.741 159.061 166.816  0.00  0.00    +0.000 A 
ATOM     13  C19 UNL     1     155.446 159.342 165.663  0.00  0.00    +0.000 A 
ATOM     14  C20 UNL     1     156.570 158.606 165.376  0.00  0.00    +0.000 A 
ENDROOT
BRANCH  11  15
ATOM     15  C11 UNL     1     153.177 160.873 166.227  0.00  0.00    +0.000 A 
ATOM     16  C12 UNL     1     152.281 160.603 165.221  0.00  0.00    +0.000 A 
ATOM     17  C13 UNL     1     151.832 161.602 164.364  0.00  0.00    +0.000 A 
ATOM     18  C14 UNL     1     152.273 162.900 164.497  0.00  0.00    +0.000 A 
ATOM     19  O5  UNL     1     151.997 164.077 163.797  0.00  0.00    +0.000 OA
ATOM     20  C15 UNL     1     152.411 165.159 164.649  0.00  0.00    +0.000 C 
ATOM     21  O6  UNL     1     153.445 164.555 165.409  0.00  0.00    +0.000 OA
ATOM     22  C16 UNL     1     153.170 163.175 165.504  0.00  0.00    +0.000 A 
ATOM     23  C17 UNL     1     153.606 162.187 166.341  0.00  0.00    +0.000 A 
ENDBRANCH  11  15
BRANCH   1  25
ATOM     24  C1  UNL     1     157.990 155.595 165.249  0.00  0.00    +0.000 C 
ATOM     25  O1  UNL     1     158.173 156.864 165.876  0.00  0.00    +0.000 OA
ENDBRANCH   1  25
BRANCH   4  26
ATOM     26  O2  UNL     1     154.811 156.799 169.725  0.00  0.00    +0.000 OA
ATOM     27  H5  UNL     1     155.744 156.639 170.008  0.00  0.00    +0.000 HD
ENDBRANCH   4  26
BRANCH  14  28
ATOM     28  O7  UNL     1     157.293 158.848 164.253  0.00  0.00    +0.000 OA
ATOM     29  C21 UNL     1     158.092 159.946 163.961  0.00  0.00    +0.000 C 
ENDBRANCH  14  28
TORSDOF 4
ENDMDL
MODEL 4
REMARK VINA RESULT:      -6.1      1.593      5.824
REMARK  Name = ./3D_structures\o44_MMV102270_3D.pdb
REMARK  6 active torsions:
REMARK  status: ('A' for Active; 'I' for Inactive)
REMARK    1  A    between atoms: C1_1  and  O1_2
REMARK    2  A    between atoms: O1_2  and  C2_3
REMARK    3  A    between atoms: C5_6  and  O2_7
REMARK    4  A    between atoms: C10_14  and  C11_15
REMARK    5  A    between atoms: C20_26  and  O7_27
REMARK    6  A    between atoms: O7_27  and  C21_28
REMARK                            x       y       z     vdW  Elec       q    Type
REMARK                         _______ _______ _______ _____ _____    ______ ____
ROOT
ATOM      1  C2  UNL     1     162.849 158.265 166.012  0.00  0.00    +0.000 A 
ATOM      2  C3  UNL     1     162.072 157.406 165.272  0.00  0.00    +0.000 A 
ATOM      3  C4  UNL     1     160.719 157.240 165.587  0.00  0.00    +0.000 A 
ATOM      4  C5  UNL     1     159.958 156.370 164.841  0.00  0.00    +0.000 A 
ATOM      5  C6  UNL     1     158.612 156.210 165.170  0.00  0.00    +0.000 A 
ATOM      6  C7  UNL     1     157.576 155.343 164.555  0.00  0.00    +0.000 C 
ATOM      7  O3  UNL     1     156.424 155.630 165.287  0.00  0.00    +0.000 OA
ATOM      8  C8  UNL     1     156.664 156.540 166.295  0.00  0.00    +0.000 C 
ATOM      9  O4  UNL     1     155.863 157.010 167.161  0.00  0.00    +0.000 OA
ATOM     10  C9  UNL     1     158.072 156.911 166.215  0.00  0.00    +0.000 A 
ATOM     11  C10 UNL     1     158.849 157.790 166.967  0.00  0.00    +0.000 A 
ATOM     12  C18 UNL     1     160.171 157.945 166.639  0.00  0.00    +0.000 A 
ATOM     13  C19 UNL     1     160.946 158.810 167.386  0.00  0.00    +0.000 A 
ATOM     14  C20 UNL     1     162.273 158.959 167.064  0.00  0.00    +0.000 A 
ENDROOT
BRANCH  11  15
ATOM     15  C11 UNL     1     158.256 158.513 168.083  0.00  0.00    +0.000 A 
ATOM     16  C12 UNL     1     157.723 159.762 167.881  0.00  0.00    +0.000 A 
ATOM     17  C13 UNL     1     157.147 160.480 168.924  0.00  0.00    +0.000 A 
ATOM     18  C14 UNL     1     157.092 159.958 170.198  0.00  0.00    +0.000 A 
ATOM     19  O5  UNL     1     156.585 160.443 171.406  0.00  0.00    +0.000 OA
ATOM     20  C15 UNL     1     156.434 159.301 172.266  0.00  0.00    +0.000 C 
ATOM     21  O6  UNL     1     157.436 158.427 171.773  0.00  0.00    +0.000 OA
ATOM     22  C16 UNL     1     157.625 158.706 170.404  0.00  0.00    +0.000 A 
ATOM     23  C17 UNL     1     158.189 158.007 169.373  0.00  0.00    +0.000 A 
ENDBRANCH  11  15
BRANCH   1  25
ATOM     24  C1  UNL     1     164.542 159.214 164.557  0.00  0.00    +0.000 C 
ATOM     25  O1  UNL     1     164.219 158.453 165.719  0.00  0.00    +0.000 OA
ENDBRANCH   1  25
BRANCH   4  26
ATOM     26  O2  UNL     1     160.423 155.633 163.780  0.00  0.00    +0.000 OA
ATOM     27  H5  UNL     1     161.204 155.907 163.241  0.00  0.00    +0.000 HD
ENDBRANCH   4  26
BRANCH  14  28
ATOM     28  O7  UNL     1     163.071 159.799 167.772  0.00  0.00    +0.000 OA
ATOM     29  C21 UNL     1     162.977 161.180 167.894  0.00  0.00    +0.000 C 
ENDBRANCH  14  28
TORSDOF 4
ENDMDL
MODEL 5
REMARK VINA RESULT:      -5.9      4.974      8.236
REMARK  Name = ./3D_structures\o44_MMV102270_3D.pdb
REMARK  6 active torsions:
REMARK  status: ('A' for Active; 'I' for Inactive)
REMARK    1  A    between atoms: C1_1  and  O1_2
REMARK    2  A    between atoms: O1_2  and  C2_3
REMARK    3  A    between atoms: C5_6  and  O2_7
REMARK    4  A    between atoms: C10_14  and  C11_15
REMARK    5  A    between atoms: C20_26  and  O7_27
REMARK    6  A    between atoms: O7_27  and  C21_28
REMARK                            x       y       z     vdW  Elec       q    Type
REMARK                         _______ _______ _______ _____ _____    ______ ____
ROOT
ATOM      1  C2  UNL     1     151.894 163.205 165.397  0.00  0.00    +0.000 A 
ATOM      2  C3  UNL     1     151.150 162.756 166.462  0.00  0.00    +0.000 A 
ATOM      3  C4  UNL     1     151.596 161.665 167.216  0.00  0.00    +0.000 A 
ATOM      4  C5  UNL     1     150.835 161.225 168.274  0.00  0.00    +0.000 A 
ATOM      5  C6  UNL     1     151.289 160.132 169.013  0.00  0.00    +0.000 A 
ATOM      6  C7  UNL     1     150.674 159.448 170.178  0.00  0.00    +0.000 C 
ATOM      7  O3  UNL     1     151.595 158.451 170.501  0.00  0.00    +0.000 OA
ATOM      8  C8  UNL     1     152.669 158.438 169.637  0.00  0.00    +0.000 C 
ATOM      9  O4  UNL     1     153.675 157.662 169.617  0.00  0.00    +0.000 OA
ATOM     10  C9  UNL     1     152.469 159.521 168.682  0.00  0.00    +0.000 A 
ATOM     11  C10 UNL     1     153.234 159.972 167.609  0.00  0.00    +0.000 A 
ATOM     12  C18 UNL     1     152.784 161.047 166.886  0.00  0.00    +0.000 A 
ATOM     13  C19 UNL     1     153.537 161.493 165.818  0.00  0.00    +0.000 A 
ATOM     14  C20 UNL     1     153.084 162.564 165.087  0.00  0.00    +0.000 A 
ENDROOT
BRANCH  11  15
ATOM     15  C11 UNL     1     154.478 159.297 167.268  0.00  0.00    +0.000 A 
ATOM     16  C12 UNL     1     155.669 159.771 167.758  0.00  0.00    +0.000 A 
ATOM     17  C13 UNL     1     156.876 159.150 167.454  0.00  0.00    +0.000 A 
ATOM     18  C14 UNL     1     156.914 158.033 166.648  0.00  0.00    +0.000 A 
ATOM     19  O5  UNL     1     157.956 157.225 166.188  0.00  0.00    +0.000 OA
ATOM     20  C15 UNL     1     157.350 155.996 165.752  0.00  0.00    +0.000 C 
ATOM     21  O6  UNL     1     156.052 156.427 165.375  0.00  0.00    +0.000 OA
ATOM     22  C16 UNL     1     155.722 157.554 166.155  0.00  0.00    +0.000 A 
ATOM     23  C17 UNL     1     154.541 158.171 166.459  0.00  0.00    +0.000 A 
ENDBRANCH  11  15
BRANCH   1  25
ATOM     24  C1  UNL     1     150.891 165.412 165.303  0.00  0.00    +0.000 C 
ATOM     25  O1  UNL     1     151.470 164.303 164.615  0.00  0.00    +0.000 OA
ENDBRANCH   1  25
BRANCH   4  26
ATOM     26  O2  UNL     1     149.644 161.782 168.668  0.00  0.00    +0.000 OA
ATOM     27  H5  UNL     1     149.556 162.335 169.482  0.00  0.00    +0.000 HD
ENDBRANCH   4  26
BRANCH  14  28
ATOM     28  O7  UNL     1     153.792 163.035 164.029  0.00  0.00    +0.000 OA
ATOM     29  C21 UNL     1     155.034 163.658 164.031  0.00  0.00    +0.000 C 
ENDBRANCH  14  28
TORSDOF 4
ENDMDL
MODEL 6
REMARK VINA RESULT:      -5.8     16.603     18.535
REMARK  Name = ./3D_structures\o44_MMV102270_3D.pdb
REMARK  6 active torsions:
REMARK  status: ('A' for Active; 'I' for Inactive)
REMARK    1  A    between atoms: C1_1  and  O1_2
REMARK    2  A    between atoms: O1_2  and  C2_3
REMARK    3  A    between atoms: C5_6  and  O2_7
REMARK    4  A    between atoms: C10_14  and  C11_15
REMARK    5  A    between atoms: C20_26  and  O7_27
REMARK    6  A    between atoms: O7_27  and  C21_28
REMARK                            x       y       z     vdW  Elec       q    Type
REMARK                         _______ _______ _______ _____ _____    ______ ____
ROOT
ATOM      1  C2  UNL     1     167.516 140.434 162.283  0.00  0.00    +0.000 A 
ATOM      2  C3  UNL     1     166.360 139.779 161.929  0.00  0.00    +0.000 A 
ATOM      3  C4  UNL     1     165.191 139.970 162.672  0.00  0.00    +0.000 A 
ATOM      4  C5  UNL     1     164.047 139.301 162.308  0.00  0.00    +0.000 A 
ATOM      5  C6  UNL     1     162.890 139.496 163.063  0.00  0.00    +0.000 A 
ATOM      6  C7  UNL     1     161.538 138.902 162.909  0.00  0.00    +0.000 C 
ATOM      7  O3  UNL     1     160.797 139.493 163.932  0.00  0.00    +0.000 OA
ATOM      8  C8  UNL     1     161.562 140.341 164.703  0.00  0.00    +0.000 C 
ATOM      9  O4  UNL     1     161.228 141.024 165.721  0.00  0.00    +0.000 OA
ATOM     10  C9  UNL     1     162.907 140.341 164.141  0.00  0.00    +0.000 A 
ATOM     11  C10 UNL     1     164.071 141.016 164.504  0.00  0.00    +0.000 A 
ATOM     12  C18 UNL     1     165.205 140.821 163.759  0.00  0.00    +0.000 A 
ATOM     13  C19 UNL     1     166.361 141.483 164.120  0.00  0.00    +0.000 A 
ATOM     14  C20 UNL     1     167.501 141.282 163.380  0.00  0.00    +0.000 A 
ENDROOT
BRANCH  11  15
ATOM     15  C11 UNL     1     164.068 141.898 165.662  0.00  0.00    +0.000 A 
ATOM     16  C12 UNL     1     163.772 143.229 165.507  0.00  0.00    +0.000 A 
ATOM     17  C13 UNL     1     163.759 144.100 166.592  0.00  0.00    +0.000 A 
ATOM     18  C14 UNL     1     164.043 143.651 167.863  0.00  0.00    +0.000 A 
ATOM     19  O5  UNL     1     164.102 144.285 169.106  0.00  0.00    +0.000 OA
ATOM     20  C15 UNL     1     164.024 143.243 170.094  0.00  0.00    +0.000 C 
ATOM     21  O6  UNL     1     164.585 142.139 169.400  0.00  0.00    +0.000 OA
ATOM     22  C16 UNL     1     164.340 142.317 168.023  0.00  0.00    +0.000 A 
ATOM     23  C17 UNL     1     164.350 141.469 166.952  0.00  0.00    +0.000 A 
ENDBRANCH  11  15
BRANCH   1  25
ATOM     24  C1  UNL     1     168.595 140.014 160.152  0.00  0.00    +0.000 C 
ATOM     25  O1  UNL     1     168.713 140.260 161.552  0.00  0.00    +0.000 OA
ENDBRANCH   1  25
BRANCH   4  26
ATOM     26  O2  UNL     1     163.948 138.438 161.244  0.00  0.00    +0.000 OA
ATOM     27  H5  UNL     1     163.938 138.747 160.306  0.00  0.00    +0.000 HD
ENDBRANCH   4  26
BRANCH  14  28
ATOM     28  O7  UNL     1     168.660 141.913 163.699  0.00  0.00    +0.000 OA
ATOM     29  C21 UNL     1     168.994 143.248 163.515  0.00  0.00    +0.000 C 
ENDBRANCH  14  28
TORSDOF 4
ENDMDL
MODEL 7
REMARK VINA RESULT:      -5.7      1.532      4.678
REMARK  Name = ./3D_structures\o44_MMV102270_3D.pdb
REMARK  6 active torsions:
REMARK  status: ('A' for Active; 'I' for Inactive)
REMARK    1  A    between atoms: C1_1  and  O1_2
REMARK    2  A    between atoms: O1_2  and  C2_3
REMARK    3  A    between atoms: C5_6  and  O2_7
REMARK    4  A    between atoms: C10_14  and  C11_15
REMARK    5  A    between atoms: C20_26  and  O7_27
REMARK    6  A    between atoms: O7_27  and  C21_28
REMARK                            x       y       z     vdW  Elec       q    Type
REMARK                         _______ _______ _______ _____ _____    ______ ____
ROOT
ATOM      1  C2  UNL     1     158.026 155.100 164.150  0.00  0.00    +0.000 A 
ATOM      2  C3  UNL     1     157.140 155.661 165.040  0.00  0.00    +0.000 A 
ATOM      3  C4  UNL     1     157.580 156.631 165.946  0.00  0.00    +0.000 A 
ATOM      4  C5  UNL     1     156.681 157.176 166.834  0.00  0.00    +0.000 A 
ATOM      5  C6  UNL     1     157.135 158.138 167.736  0.00  0.00    +0.000 A 
ATOM      6  C7  UNL     1     156.401 158.872 168.797  0.00  0.00    +0.000 C 
ATOM      7  O3  UNL     1     157.367 159.715 169.348  0.00  0.00    +0.000 OA
ATOM      8  C8  UNL     1     158.603 159.538 168.763  0.00  0.00    +0.000 C 
ATOM      9  O4  UNL     1     159.705 160.112 169.025  0.00  0.00    +0.000 OA
ATOM     10  C9  UNL     1     158.449 158.524 167.727  0.00  0.00    +0.000 A 
ATOM     11  C10 UNL     1     159.354 157.968 166.825  0.00  0.00    +0.000 A 
ATOM     12  C18 UNL     1     158.903 157.023 165.939  0.00  0.00    +0.000 A 
ATOM     13  C19 UNL     1     159.798 156.464 165.049  0.00  0.00    +0.000 A 
ATOM     14  C20 UNL     1     159.350 155.511 164.167  0.00  0.00    +0.000 A 
ENDROOT
BRANCH  11  15
ATOM     15  C11 UNL     1     160.748 158.383 166.844  0.00  0.00    +0.000 A 
ATOM     16  C12 UNL     1     161.140 159.495 166.140  0.00  0.00    +0.000 A 
ATOM     17  C13 UNL     1     162.464 159.921 166.137  0.00  0.00    +0.000 A 
ATOM     18  C14 UNL     1     163.429 159.239 166.844  0.00  0.00    +0.000 A 
ATOM     19  O5  UNL     1     164.801 159.436 167.018  0.00  0.00    +0.000 OA
ATOM     20  C15 UNL     1     165.173 158.674 168.180  0.00  0.00    +0.000 C 
ATOM     21  O6  UNL     1     164.210 157.633 168.169  0.00  0.00    +0.000 OA
ATOM     22  C16 UNL     1     163.041 158.124 167.552  0.00  0.00    +0.000 A 
ATOM     23  C17 UNL     1     161.738 157.713 167.549  0.00  0.00    +0.000 A 
ENDBRANCH  11  15
BRANCH   1  25
ATOM     24  C1  UNL     1     157.451 152.784 163.711  0.00  0.00    +0.000 C 
ATOM     25  O1  UNL     1     157.613 154.116 163.224  0.00  0.00    +0.000 OA
ENDBRANCH   1  25
BRANCH   4  26
ATOM     26  O2  UNL     1     155.351 156.844 166.907  0.00  0.00    +0.000 OA
ATOM     27  H5  UNL     1     154.930 156.507 167.734  0.00  0.00    +0.000 HD
ENDBRANCH   4  26
BRANCH  14  28
ATOM     28  O7  UNL     1     160.195 154.936 163.274  0.00  0.00    +0.000 OA
ATOM     29  C21 UNL     1     161.537 154.617 163.438  0.00  0.00    +0.000 C 
ENDBRANCH  14  28
TORSDOF 4
ENDMDL
MODEL 8
REMARK VINA RESULT:      -5.6      2.380      6.557
REMARK  Name = ./3D_structures\o44_MMV102270_3D.pdb
REMARK  6 active torsions:
REMARK  status: ('A' for Active; 'I' for Inactive)
REMARK    1  A    between atoms: C1_1  and  O1_2
REMARK    2  A    between atoms: O1_2  and  C2_3
REMARK    3  A    between atoms: C5_6  and  O2_7
REMARK    4  A    between atoms: C10_14  and  C11_15
REMARK    5  A    between atoms: C20_26  and  O7_27
REMARK    6  A    between atoms: O7_27  and  C21_28
REMARK                            x       y       z     vdW  Elec       q    Type
REMARK                         _______ _______ _______ _____ _____    ______ ____
ROOT
ATOM      1  C2  UNL     1     161.141 161.003 167.527  0.00  0.00    +0.000 A 
ATOM      2  C3  UNL     1     160.637 160.099 166.623  0.00  0.00    +0.000 A 
ATOM      3  C4  UNL     1     159.458 159.403 166.913  0.00  0.00    +0.000 A 
ATOM      4  C5  UNL     1     158.973 158.496 166.000  0.00  0.00    +0.000 A 
ATOM      5  C6  UNL     1     157.800 157.804 166.306  0.00  0.00    +0.000 A 
ATOM      6  C7  UNL     1     157.069 156.775 165.525  0.00  0.00    +0.000 C 
ATOM      7  O3  UNL     1     155.964 156.476 166.322  0.00  0.00    +0.000 OA
ATOM      8  C8  UNL     1     155.974 157.181 167.507  0.00  0.00    +0.000 C 
ATOM      9  O4  UNL     1     155.147 157.145 168.470  0.00  0.00    +0.000 OA
ATOM     10  C9  UNL     1     157.156 158.034 167.492  0.00  0.00    +0.000 A 
ATOM     11  C10 UNL     1     157.654 158.954 168.412  0.00  0.00    +0.000 A 
ATOM     12  C18 UNL     1     158.806 159.632 168.107  0.00  0.00    +0.000 A 
ATOM     13  C19 UNL     1     159.306 160.539 169.019  0.00  0.00    +0.000 A 
ATOM     14  C20 UNL     1     160.465 161.213 168.720  0.00  0.00    +0.000 A 
ENDROOT
BRANCH  11  15
ATOM     15  C11 UNL     1     156.959 159.171 169.673  0.00  0.00    +0.000 A 
ATOM     16  C12 UNL     1     157.280 158.409 170.769  0.00  0.00    +0.000 A 
ATOM     17  C13 UNL     1     156.638 158.590 171.990  0.00  0.00    +0.000 A 
ATOM     18  C14 UNL     1     155.655 159.543 172.138  0.00  0.00    +0.000 A 
ATOM     19  O5  UNL     1     154.862 159.934 173.219  0.00  0.00    +0.000 OA
ATOM     20  C15 UNL     1     154.342 161.234 172.888  0.00  0.00    +0.000 C 
ATOM     21  O6  UNL     1     154.312 161.185 171.471  0.00  0.00    +0.000 OA
ATOM     22  C16 UNL     1     155.330 160.309 171.041  0.00  0.00    +0.000 A 
ATOM     23  C17 UNL     1     155.966 160.124 169.846  0.00  0.00    +0.000 A 
ENDBRANCH  11  15
BRANCH   1  25
ATOM     24  C1  UNL     1     162.252 162.797 166.330  0.00  0.00    +0.000 C 
ATOM     25  O1  UNL     1     162.330 161.721 167.264  0.00  0.00    +0.000 OA
ENDBRANCH   1  25
BRANCH   4  26
ATOM     26  O2  UNL     1     159.559 158.209 164.792  0.00  0.00    +0.000 OA
ATOM     27  H5  UNL     1     160.282 157.544 164.694  0.00  0.00    +0.000 HD
ENDBRANCH   4  26
BRANCH  14  28
ATOM     28  O7  UNL     1     160.992 162.114 169.587  0.00  0.00    +0.000 OA
ATOM     29  C21 UNL     1     160.416 163.281 170.075  0.00  0.00    +0.000 C 
ENDBRANCH  14  28
TORSDOF 4
ENDMDL
MODEL 9
REMARK VINA RESULT:      -5.5      9.857     13.708
REMARK  Name = ./3D_structures\o44_MMV102270_3D.pdb
REMARK  6 active torsions:
REMARK  status: ('A' for Active; 'I' for Inactive)
REMARK    1  A    between atoms: C1_1  and  O1_2
REMARK    2  A    between atoms: O1_2  and  C2_3
REMARK    3  A    between atoms: C5_6  and  O2_7
REMARK    4  A    between atoms: C10_14  and  C11_15
REMARK    5  A    between atoms: C20_26  and  O7_27
REMARK    6  A    between atoms: O7_27  and  C21_28
REMARK                            x       y       z     vdW  Elec       q    Type
REMARK                         _______ _______ _______ _____ _____    ______ ____
ROOT
ATOM      1  C2  UNL     1     152.725 165.854 165.296  0.00  0.00    +0.000 A 
ATOM      2  C3  UNL     1     152.684 166.614 166.441  0.00  0.00    +0.000 A 
ATOM      3  C4  UNL     1     151.697 166.374 167.404  0.00  0.00    +0.000 A 
ATOM      4  C5  UNL     1     151.666 167.149 168.540  0.00  0.00    +0.000 A 
ATOM      5  C6  UNL     1     150.673 166.904 169.488  0.00  0.00    +0.000 A 
ATOM      6  C7  UNL     1     150.397 167.583 170.779  0.00  0.00    +0.000 C 
ATOM      7  O3  UNL     1     149.304 166.886 171.295  0.00  0.00    +0.000 OA
ATOM      8  C8  UNL     1     148.872 165.894 170.440  0.00  0.00    +0.000 C 
ATOM      9  O4  UNL     1     147.901 165.086 170.573  0.00  0.00    +0.000 OA
ATOM     10  C9  UNL     1     149.755 165.908 169.280  0.00  0.00    +0.000 A 
ATOM     11  C10 UNL     1     149.792 165.128 168.127  0.00  0.00    +0.000 A 
ATOM     12  C18 UNL     1     150.771 165.372 167.198  0.00  0.00    +0.000 A 
ATOM     13  C19 UNL     1     150.807 164.605 166.051  0.00  0.00    +0.000 A 
ATOM     14  C20 UNL     1     151.781 164.855 165.115  0.00  0.00    +0.000 A 
ENDROOT
BRANCH  11  15
ATOM     15  C11 UNL     1     148.797 164.086 167.922  0.00  0.00    +0.000 A 
ATOM     16  C12 UNL     1     147.626 164.379 167.269  0.00  0.00    +0.000 A 
ATOM     17  C13 UNL     1     146.654 163.407 167.054  0.00  0.00    +0.000 A 
ATOM     18  C14 UNL     1     146.836 162.114 167.491  0.00  0.00    +0.000 A 
ATOM     19  O5  UNL     1     146.050 160.962 167.416  0.00  0.00    +0.000 OA
ATOM     20  C15 UNL     1     146.934 159.854 167.658  0.00  0.00    +0.000 C 
ATOM     21  O6  UNL     1     147.930 160.447 168.476  0.00  0.00    +0.000 OA
ATOM     22  C16 UNL     1     148.010 161.816 168.146  0.00  0.00    +0.000 A 
ATOM     23  C17 UNL     1     148.959 162.776 168.353  0.00  0.00    +0.000 A 
ENDBRANCH  11  15
BRANCH   1  25
ATOM     24  C1  UNL     1     155.023 165.581 164.567  0.00  0.00    +0.000 C 
ATOM     25  O1  UNL     1     153.709 166.072 164.305  0.00  0.00    +0.000 OA
ENDBRANCH   1  25
BRANCH   4  26
ATOM     26  O2  UNL     1     152.548 168.164 168.822  0.00  0.00    +0.000 OA
ATOM     27  H5  UNL     1     152.473 168.726 169.630  0.00  0.00    +0.000 HD
ENDBRANCH   4  26
BRANCH  14  28
ATOM     28  O7  UNL     1     151.854 164.124 163.973  0.00  0.00    +0.000 OA
ATOM     29  C21 UNL     1     152.350 162.838 163.802  0.00  0.00    +0.000 C 
ENDBRANCH  14  28
TORSDOF 4
ENDMDL
