MODEL 1
REMARK VINA RESULT:      -4.8      0.000      0.000
REMARK  Name = ./3D_structures\o45_MMV000008_3D.pdb
REMARK  11 active torsions:
REMARK  status: ('A' for Active; 'I' for Inactive)
REMARK    1  A    between atoms: C1_1  and  C2_2
REMARK    2  A    between atoms: C2_2  and  N1_3
REMARK    3  A    between atoms: N1_3  and  C3_4
REMARK    4  A    between atoms: N1_3  and  C5_6
REMARK    5  A    between atoms: C3_4  and  C4_5
REMARK    6  A    between atoms: C5_6  and  C6_7
REMARK    7  A    between atoms: C6_7  and  C7_8
REMARK    8  A    between atoms: C7_8  and  C8_9
REMARK    9  A    between atoms: C8_9  and  C9_10
REMARK   10  A    between atoms: C8_9  and  N2_11
REMARK   11  A    between atoms: N2_11  and  C10_12
REMARK                            x       y       z     vdW  Elec       q    Type
REMARK                         _______ _______ _______ _____ _____    ______ ____
ROOT
ATOM      1  N2  UNL     1     157.477 156.547 167.071  0.00  0.00    +0.000 N 
ATOM      2  H21 UNL     1     157.414 155.591 167.455  0.00  0.00    +0.000 HD
ENDROOT
BRANCH   1   3
ATOM      3  C10 UNL     1     158.022 157.591 167.846  0.00  0.00    +0.000 A 
ATOM      4  C11 UNL     1     159.121 158.287 167.386  0.00  0.00    +0.000 A 
ATOM      5  C12 UNL     1     159.664 159.336 168.128  0.00  0.00    +0.000 A 
ATOM      6  N3  UNL     1     159.121 159.684 169.306  0.00  0.00    +0.000 NA
ATOM      7  C13 UNL     1     158.063 159.037 169.781  0.00  0.00    +0.000 A 
ATOM      8  C14 UNL     1     157.562 159.449 170.991  0.00  0.00    +0.000 A 
ATOM      9  C15 UNL     1     156.470 158.800 171.507  0.00  0.00    +0.000 A 
ATOM     10 CL1  UNL     1     155.823 159.320 173.059  0.00  0.00    +0.000 Cl
ATOM     11  C16 UNL     1     155.898 157.759 170.815  0.00  0.00    +0.000 A 
ATOM     12  C17 UNL     1     156.404 157.337 169.581  0.00  0.00    +0.000 A 
ATOM     13  C18 UNL     1     157.498 157.980 169.055  0.00  0.00    +0.000 A 
ENDBRANCH   1   3
BRANCH   1  14
ATOM     14  C8  UNL     1     156.985 156.802 165.696  0.00  0.00    +0.000 C 
ATOM     15  C9  UNL     1     157.162 155.568 164.872  0.00  0.00    +0.000 C 
BRANCH  14  16
ATOM     16  C7  UNL     1     155.613 157.321 165.762  0.00  0.00    +0.000 C 
BRANCH  16  17
ATOM     17  C6  UNL     1     155.333 158.758 165.944  0.00  0.00    +0.000 C 
BRANCH  17  18
ATOM     18  C5  UNL     1     153.925 159.091 166.193  0.00  0.00    +0.000 C 
BRANCH  18  19
ATOM     19  N1  UNL     1     153.751 160.285 167.023  0.00  0.00    +0.000 NA
BRANCH  19  21
ATOM     20  C1  UNL     1     152.273 160.942 165.278  0.00  0.00    +0.000 C 
ATOM     21  C2  UNL     1     152.489 160.932 166.794  0.00  0.00    +0.000 C 
ENDBRANCH  19  21
BRANCH  19  22
ATOM     22  C3  UNL     1     153.993 159.995 168.417  0.00  0.00    +0.000 C 
ATOM     23  C4  UNL     1     153.037 158.940 168.865  0.00  0.00    +0.000 C 
ENDBRANCH  19  22
ENDBRANCH  18  19
ENDBRANCH  17  18
ENDBRANCH  16  17
ENDBRANCH  14  16
ENDBRANCH   1  14
TORSDOF 8
ENDMDL
MODEL 2
REMARK VINA RESULT:      -4.8      1.784      2.325
REMARK  Name = ./3D_structures\o45_MMV000008_3D.pdb
REMARK  11 active torsions:
REMARK  status: ('A' for Active; 'I' for Inactive)
REMARK    1  A    between atoms: C1_1  and  C2_2
REMARK    2  A    between atoms: C2_2  and  N1_3
REMARK    3  A    between atoms: N1_3  and  C3_4
REMARK    4  A    between atoms: N1_3  and  C5_6
REMARK    5  A    between atoms: C3_4  and  C4_5
REMARK    6  A    between atoms: C5_6  and  C6_7
REMARK    7  A    between atoms: C6_7  and  C7_8
REMARK    8  A    between atoms: C7_8  and  C8_9
REMARK    9  A    between atoms: C8_9  and  C9_10
REMARK   10  A    between atoms: C8_9  and  N2_11
REMARK   11  A    between atoms: N2_11  and  C10_12
REMARK                            x       y       z     vdW  Elec       q    Type
REMARK                         _______ _______ _______ _____ _____    ______ ____
ROOT
ATOM      1  N2  UNL     1     159.367 158.256 168.137  0.00  0.00    +0.000 N 
ATOM      2  H21 UNL     1     160.050 157.614 168.569  0.00  0.00    +0.000 HD
ENDROOT
BRANCH   1   3
ATOM      3  C10 UNL     1     159.009 159.455 168.786  0.00  0.00    +0.000 A 
ATOM      4  C11 UNL     1     159.478 160.661 168.309  0.00  0.00    +0.000 A 
ATOM      5  C12 UNL     1     159.122 161.862 168.924  0.00  0.00    +0.000 A 
ATOM      6  N3  UNL     1     158.312 161.857 169.996  0.00  0.00    +0.000 NA
ATOM      7  C13 UNL     1     157.841 160.716 170.484  0.00  0.00    +0.000 A 
ATOM      8  C14 UNL     1     157.019 160.791 171.581  0.00  0.00    +0.000 A 
ATOM      9  C15 UNL     1     156.517 159.628 172.108  0.00  0.00    +0.000 A 
ATOM     10 CL1  UNL     1     155.463 159.715 173.515  0.00  0.00    +0.000 Cl
ATOM     11  C16 UNL     1     156.838 158.420 171.538  0.00  0.00    +0.000 A 
ATOM     12  C17 UNL     1     157.675 158.339 170.420  0.00  0.00    +0.000 A 
ATOM     13  C18 UNL     1     158.183 159.498 169.884  0.00  0.00    +0.000 A 
ENDBRANCH   1   3
BRANCH   1  14
ATOM     14  C8  UNL     1     158.769 157.896 166.830  0.00  0.00    +0.000 C 
ATOM     15  C9  UNL     1     159.857 157.525 165.875  0.00  0.00    +0.000 C 
BRANCH  14  16
ATOM     16  C7  UNL     1     157.738 156.870 167.036  0.00  0.00    +0.000 C 
BRANCH  16  17
ATOM     17  C6  UNL     1     156.339 157.079 166.620  0.00  0.00    +0.000 C 
BRANCH  17  18
ATOM     18  C5  UNL     1     155.835 158.447 166.793  0.00  0.00    +0.000 C 
BRANCH  18  19
ATOM     19  N1  UNL     1     155.234 158.681 168.107  0.00  0.00    +0.000 NA
BRANCH  19  21
ATOM     20  C1  UNL     1     155.676 160.916 167.421  0.00  0.00    +0.000 C 
ATOM     21  C2  UNL     1     154.752 160.026 168.257  0.00  0.00    +0.000 C 
ENDBRANCH  19  21
BRANCH  19  22
ATOM     22  C3  UNL     1     154.233 157.684 168.411  0.00  0.00    +0.000 C 
ATOM     23  C4  UNL     1     153.569 158.043 169.699  0.00  0.00    +0.000 C 
ENDBRANCH  19  22
ENDBRANCH  18  19
ENDBRANCH  17  18
ENDBRANCH  16  17
ENDBRANCH  14  16
ENDBRANCH   1  14
TORSDOF 8
ENDMDL
MODEL 3
REMARK VINA RESULT:      -4.7      2.375      3.954
REMARK  Name = ./3D_structures\o45_MMV000008_3D.pdb
REMARK  11 active torsions:
REMARK  status: ('A' for Active; 'I' for Inactive)
REMARK    1  A    between atoms: C1_1  and  C2_2
REMARK    2  A    between atoms: C2_2  and  N1_3
REMARK    3  A    between atoms: N1_3  and  C3_4
REMARK    4  A    between atoms: N1_3  and  C5_6
REMARK    5  A    between atoms: C3_4  and  C4_5
REMARK    6  A    between atoms: C5_6  and  C6_7
REMARK    7  A    between atoms: C6_7  and  C7_8
REMARK    8  A    between atoms: C7_8  and  C8_9
REMARK    9  A    between atoms: C8_9  and  C9_10
REMARK   10  A    between atoms: C8_9  and  N2_11
REMARK   11  A    between atoms: N2_11  and  C10_12
REMARK                            x       y       z     vdW  Elec       q    Type
REMARK                         _______ _______ _______ _____ _____    ______ ____
ROOT
ATOM      1  N2  UNL     1     154.841 156.880 169.367  0.00  0.00    +0.000 N 
ATOM      2  H21 UNL     1     154.720 155.860 169.474  0.00  0.00    +0.000 HD
ENDROOT
BRANCH   1   3
ATOM      3  C10 UNL     1     156.065 157.491 169.709  0.00  0.00    +0.000 A 
ATOM      4  C11 UNL     1     156.247 158.000 170.978  0.00  0.00    +0.000 A 
ATOM      5  C12 UNL     1     157.457 158.591 171.344  0.00  0.00    +0.000 A 
ATOM      6  N3  UNL     1     158.464 158.674 170.459  0.00  0.00    +0.000 NA
ATOM      7  C13 UNL     1     158.325 158.196 169.229  0.00  0.00    +0.000 A 
ATOM      8  C14 UNL     1     159.398 158.316 168.380  0.00  0.00    +0.000 A 
ATOM      9  C15 UNL     1     159.284 157.832 167.103  0.00  0.00    +0.000 A 
ATOM     10 CL1  UNL     1     160.654 157.982 166.008  0.00  0.00    +0.000 Cl
ATOM     11  C16 UNL     1     158.113 157.239 166.693  0.00  0.00    +0.000 A 
ATOM     12  C17 UNL     1     157.017 157.114 167.554  0.00  0.00    +0.000 A 
ATOM     13  C18 UNL     1     157.121 157.596 168.837  0.00  0.00    +0.000 A 
ENDBRANCH   1   3
BRANCH   1  14
ATOM     14  C8  UNL     1     153.709 157.687 168.853  0.00  0.00    +0.000 C 
ATOM     15  C9  UNL     1     152.612 157.700 169.868  0.00  0.00    +0.000 C 
BRANCH  14  16
ATOM     16  C7  UNL     1     154.203 159.009 168.446  0.00  0.00    +0.000 C 
BRANCH  16  17
ATOM     17  C6  UNL     1     153.549 159.789 167.379  0.00  0.00    +0.000 C 
BRANCH  17  18
ATOM     18  C5  UNL     1     154.018 159.499 166.018  0.00  0.00    +0.000 C 
BRANCH  18  19
ATOM     19  N1  UNL     1     154.126 160.693 165.177  0.00  0.00    +0.000 NA
BRANCH  19  21
ATOM     20  C1  UNL     1     152.224 161.995 164.586  0.00  0.00    +0.000 C 
ATOM     21  C2  UNL     1     153.303 161.771 165.650  0.00  0.00    +0.000 C 
ENDBRANCH  19  21
BRANCH  19  22
ATOM     22  C3  UNL     1     155.505 161.076 164.984  0.00  0.00    +0.000 C 
ATOM     23  C4  UNL     1     156.324 159.847 164.771  0.00  0.00    +0.000 C 
ENDBRANCH  19  22
ENDBRANCH  18  19
ENDBRANCH  17  18
ENDBRANCH  16  17
ENDBRANCH  14  16
ENDBRANCH   1  14
TORSDOF 8
ENDMDL
MODEL 4
REMARK VINA RESULT:      -4.6      2.378      5.155
REMARK  Name = ./3D_structures\o45_MMV000008_3D.pdb
REMARK  11 active torsions:
REMARK  status: ('A' for Active; 'I' for Inactive)
REMARK    1  A    between atoms: C1_1  and  C2_2
REMARK    2  A    between atoms: C2_2  and  N1_3
REMARK    3  A    between atoms: N1_3  and  C3_4
REMARK    4  A    between atoms: N1_3  and  C5_6
REMARK    5  A    between atoms: C3_4  and  C4_5
REMARK    6  A    between atoms: C5_6  and  C6_7
REMARK    7  A    between atoms: C6_7  and  C7_8
REMARK    8  A    between atoms: C7_8  and  C8_9
REMARK    9  A    between atoms: C8_9  and  C9_10
REMARK   10  A    between atoms: C8_9  and  N2_11
REMARK   11  A    between atoms: N2_11  and  C10_12
REMARK                            x       y       z     vdW  Elec       q    Type
REMARK                         _______ _______ _______ _____ _____    ______ ____
ROOT
ATOM      1  N2  UNL     1     155.845 157.321 166.457  0.00  0.00    +0.000 N 
ATOM      2  H21 UNL     1     155.642 157.132 165.462  0.00  0.00    +0.000 HD
ENDROOT
BRANCH   1   3
ATOM      3  C10 UNL     1     154.853 157.875 167.292  0.00  0.00    +0.000 A 
ATOM      4  C11 UNL     1     154.573 157.289 168.509  0.00  0.00    +0.000 A 
ATOM      5  C12 UNL     1     153.609 157.831 169.360  0.00  0.00    +0.000 A 
ATOM      6  N3  UNL     1     152.937 158.937 169.001  0.00  0.00    +0.000 NA
ATOM      7  C13 UNL     1     153.179 159.529 167.838  0.00  0.00    +0.000 A 
ATOM      8  C14 UNL     1     152.453 160.656 167.540  0.00  0.00    +0.000 A 
ATOM      9  C15 UNL     1     152.680 161.289 166.345  0.00  0.00    +0.000 A 
ATOM     10 CL1  UNL     1     151.753 162.733 165.955  0.00  0.00    +0.000 Cl
ATOM     11  C16 UNL     1     153.620 160.794 165.472  0.00  0.00    +0.000 A 
ATOM     12  C17 UNL     1     154.362 159.647 165.771  0.00  0.00    +0.000 A 
ATOM     13  C18 UNL     1     154.142 159.005 166.966  0.00  0.00    +0.000 A 
ENDBRANCH   1   3
BRANCH   1  14
ATOM     14  C8  UNL     1     157.190 157.003 166.989  0.00  0.00    +0.000 C 
ATOM     15  C9  UNL     1     157.878 156.057 166.058  0.00  0.00    +0.000 C 
BRANCH  14  16
ATOM     16  C7  UNL     1     157.912 158.253 167.259  0.00  0.00    +0.000 C 
BRANCH  16  17
ATOM     17  C6  UNL     1     158.564 158.510 168.557  0.00  0.00    +0.000 C 
BRANCH  17  18
ATOM     18  C5  UNL     1     157.651 158.621 169.702  0.00  0.00    +0.000 C 
BRANCH  18  19
ATOM     19  N1  UNL     1     157.816 159.865 170.455  0.00  0.00    +0.000 NA
BRANCH  19  21
ATOM     20  C1  UNL     1     156.117 161.127 169.369  0.00  0.00    +0.000 C 
ATOM     21  C2  UNL     1     157.621 161.030 169.638  0.00  0.00    +0.000 C 
ENDBRANCH  19  21
BRANCH  19  22
ATOM     22  C3  UNL     1     157.001 159.868 171.648  0.00  0.00    +0.000 C 
ATOM     23  C4  UNL     1     156.498 158.485 171.895  0.00  0.00    +0.000 C 
ENDBRANCH  19  22
ENDBRANCH  18  19
ENDBRANCH  17  18
ENDBRANCH  16  17
ENDBRANCH  14  16
ENDBRANCH   1  14
TORSDOF 8
ENDMDL
MODEL 5
REMARK VINA RESULT:      -4.6      3.086      5.932
REMARK  Name = ./3D_structures\o45_MMV000008_3D.pdb
REMARK  11 active torsions:
REMARK  status: ('A' for Active; 'I' for Inactive)
REMARK    1  A    between atoms: C1_1  and  C2_2
REMARK    2  A    between atoms: C2_2  and  N1_3
REMARK    3  A    between atoms: N1_3  and  C3_4
REMARK    4  A    between atoms: N1_3  and  C5_6
REMARK    5  A    between atoms: C3_4  and  C4_5
REMARK    6  A    between atoms: C5_6  and  C6_7
REMARK    7  A    between atoms: C6_7  and  C7_8
REMARK    8  A    between atoms: C7_8  and  C8_9
REMARK    9  A    between atoms: C8_9  and  C9_10
REMARK   10  A    between atoms: C8_9  and  N2_11
REMARK   11  A    between atoms: N2_11  and  C10_12
REMARK                            x       y       z     vdW  Elec       q    Type
REMARK                         _______ _______ _______ _____ _____    ______ ____
ROOT
ATOM      1  N2  UNL     1     156.556 158.540 171.663  0.00  0.00    +0.000 N 
ATOM      2  H21 UNL     1     157.087 157.945 172.318  0.00  0.00    +0.000 HD
ENDROOT
BRANCH   1   3
ATOM      3  C10 UNL     1     156.324 158.111 170.340  0.00  0.00    +0.000 A 
ATOM      4  C11 UNL     1     155.060 157.711 169.960  0.00  0.00    +0.000 A 
ATOM      5  C12 UNL     1     154.802 157.301 168.651  0.00  0.00    +0.000 A 
ATOM      6  N3  UNL     1     155.789 157.290 167.740  0.00  0.00    +0.000 NA
ATOM      7  C13 UNL     1     157.018 157.668 168.069  0.00  0.00    +0.000 A 
ATOM      8  C14 UNL     1     157.975 157.630 167.084  0.00  0.00    +0.000 A 
ATOM      9  C15 UNL     1     159.254 158.015 167.394  0.00  0.00    +0.000 A 
ATOM     10 CL1  UNL     1     160.486 157.969 166.138  0.00  0.00    +0.000 Cl
ATOM     11  C16 UNL     1     159.558 158.428 168.669  0.00  0.00    +0.000 A 
ATOM     12  C17 UNL     1     158.587 158.468 169.676  0.00  0.00    +0.000 A 
ATOM     13  C18 UNL     1     157.302 158.085 169.376  0.00  0.00    +0.000 A 
ENDBRANCH   1   3
BRANCH   1  14
ATOM     14  C8  UNL     1     156.047 159.849 172.134  0.00  0.00    +0.000 C 
ATOM     15  C9  UNL     1     155.522 159.702 173.525  0.00  0.00    +0.000 C 
BRANCH  14  16
ATOM     16  C7  UNL     1     157.093 160.866 171.962  0.00  0.00    +0.000 C 
BRANCH  16  17
ATOM     17  C6  UNL     1     157.074 161.820 170.839  0.00  0.00    +0.000 C 
BRANCH  17  18
ATOM     18  C5  UNL     1     158.365 162.449 170.532  0.00  0.00    +0.000 C 
BRANCH  18  19
ATOM     19  N1  UNL     1     158.963 161.964 169.287  0.00  0.00    +0.000 NA
BRANCH  19  21
ATOM     20  C1  UNL     1     157.893 161.498 167.214  0.00  0.00    +0.000 C 
ATOM     21  C2  UNL     1     158.414 162.611 168.128  0.00  0.00    +0.000 C 
ENDBRANCH  19  21
BRANCH  19  22
ATOM     22  C3  UNL     1     160.406 162.026 169.340  0.00  0.00    +0.000 C 
ATOM     23  C4  UNL     1     160.810 163.094 170.300  0.00  0.00    +0.000 C 
ENDBRANCH  19  22
ENDBRANCH  18  19
ENDBRANCH  17  18
ENDBRANCH  16  17
ENDBRANCH  14  16
ENDBRANCH   1  14
TORSDOF 8
ENDMDL
MODEL 6
REMARK VINA RESULT:      -4.6      2.734      4.688
REMARK  Name = ./3D_structures\o45_MMV000008_3D.pdb
REMARK  11 active torsions:
REMARK  status: ('A' for Active; 'I' for Inactive)
REMARK    1  A    between atoms: C1_1  and  C2_2
REMARK    2  A    between atoms: C2_2  and  N1_3
REMARK    3  A    between atoms: N1_3  and  C3_4
REMARK    4  A    between atoms: N1_3  and  C5_6
REMARK    5  A    between atoms: C3_4  and  C4_5
REMARK    6  A    between atoms: C5_6  and  C6_7
REMARK    7  A    between atoms: C6_7  and  C7_8
REMARK    8  A    between atoms: C7_8  and  C8_9
REMARK    9  A    between atoms: C8_9  and  C9_10
REMARK   10  A    between atoms: C8_9  and  N2_11
REMARK   11  A    between atoms: N2_11  and  C10_12
REMARK                            x       y       z     vdW  Elec       q    Type
REMARK                         _______ _______ _______ _____ _____    ______ ____
ROOT
ATOM      1  N2  UNL     1     157.393 158.611 168.928  0.00  0.00    +0.000 N 
ATOM      2  H21 UNL     1     156.762 159.399 168.712  0.00  0.00    +0.000 HD
ENDROOT
BRANCH   1   3
ATOM      3  C10 UNL     1     158.409 158.245 168.021  0.00  0.00    +0.000 A 
ATOM      4  C11 UNL     1     159.710 158.639 168.253  0.00  0.00    +0.000 A 
ATOM      5  C12 UNL     1     160.735 158.273 167.379  0.00  0.00    +0.000 A 
ATOM      6  N3  UNL     1     160.464 157.527 166.295  0.00  0.00    +0.000 NA
ATOM      7  C13 UNL     1     159.224 157.129 166.040  0.00  0.00    +0.000 A 
ATOM      8  C14 UNL     1     159.024 156.370 164.913  0.00  0.00    +0.000 A 
ATOM      9  C15 UNL     1     157.753 155.945 164.623  0.00  0.00    +0.000 A 
ATOM     10 CL1  UNL     1     157.488 154.971 163.181  0.00  0.00    +0.000 Cl
ATOM     11  C16 UNL     1     156.709 156.279 165.453  0.00  0.00    +0.000 A 
ATOM     12  C17 UNL     1     156.908 157.052 166.601  0.00  0.00    +0.000 A 
ATOM     13  C18 UNL     1     158.178 157.484 166.901  0.00  0.00    +0.000 A 
ENDBRANCH   1   3
BRANCH   1  14
ATOM     14  C8  UNL     1     157.212 157.873 170.200  0.00  0.00    +0.000 C 
ATOM     15  C9  UNL     1     157.476 158.794 171.347  0.00  0.00    +0.000 C 
BRANCH  14  16
ATOM     16  C7  UNL     1     155.891 157.231 170.202  0.00  0.00    +0.000 C 
BRANCH  16  17
ATOM     17  C6  UNL     1     154.645 158.014 170.115  0.00  0.00    +0.000 C 
BRANCH  17  18
ATOM     18  C5  UNL     1     153.805 157.722 168.946  0.00  0.00    +0.000 C 
BRANCH  18  19
ATOM     19  N1  UNL     1     153.218 158.919 168.342  0.00  0.00    +0.000 NA
BRANCH  19  21
ATOM     20  C1  UNL     1     151.178 159.146 169.547  0.00  0.00    +0.000 C 
ATOM     21  C2  UNL     1     152.563 159.755 169.310  0.00  0.00    +0.000 C 
ENDBRANCH  19  21
BRANCH  19  22
ATOM     22  C3  UNL     1     154.186 159.632 167.541  0.00  0.00    +0.000 C 
ATOM     23  C4  UNL     1     153.946 159.320 166.102  0.00  0.00    +0.000 C 
ENDBRANCH  19  22
ENDBRANCH  18  19
ENDBRANCH  17  18
ENDBRANCH  16  17
ENDBRANCH  14  16
ENDBRANCH   1  14
TORSDOF 8
ENDMDL
MODEL 7
REMARK VINA RESULT:      -4.6      2.794      5.195
REMARK  Name = ./3D_structures\o45_MMV000008_3D.pdb
REMARK  11 active torsions:
REMARK  status: ('A' for Active; 'I' for Inactive)
REMARK    1  A    between atoms: C1_1  and  C2_2
REMARK    2  A    between atoms: C2_2  and  N1_3
REMARK    3  A    between atoms: N1_3  and  C3_4
REMARK    4  A    between atoms: N1_3  and  C5_6
REMARK    5  A    between atoms: C3_4  and  C4_5
REMARK    6  A    between atoms: C5_6  and  C6_7
REMARK    7  A    between atoms: C6_7  and  C7_8
REMARK    8  A    between atoms: C7_8  and  C8_9
REMARK    9  A    between atoms: C8_9  and  C9_10
REMARK   10  A    between atoms: C8_9  and  N2_11
REMARK   11  A    between atoms: N2_11  and  C10_12
REMARK                            x       y       z     vdW  Elec       q    Type
REMARK                         _______ _______ _______ _____ _____    ______ ____
ROOT
ATOM      1  N2  UNL     1     156.642 158.591 171.696  0.00  0.00    +0.000 N 
ATOM      2  H21 UNL     1     157.231 158.040 172.340  0.00  0.00    +0.000 HD
ENDROOT
BRANCH   1   3
ATOM      3  C10 UNL     1     156.392 158.127 170.388  0.00  0.00    +0.000 A 
ATOM      4  C11 UNL     1     155.130 157.690 170.044  0.00  0.00    +0.000 A 
ATOM      5  C12 UNL     1     154.854 157.245 168.751  0.00  0.00    +0.000 A 
ATOM      6  N3  UNL     1     155.822 157.235 167.820  0.00  0.00    +0.000 NA
ATOM      7  C13 UNL     1     157.049 157.648 168.114  0.00  0.00    +0.000 A 
ATOM      8  C14 UNL     1     157.985 157.609 167.110  0.00  0.00    +0.000 A 
ATOM      9  C15 UNL     1     159.262 158.028 167.384  0.00  0.00    +0.000 A 
ATOM     10 CL1  UNL     1     160.468 157.981 166.103  0.00  0.00    +0.000 Cl
ATOM     11  C16 UNL     1     159.583 158.477 168.643  0.00  0.00    +0.000 A 
ATOM     12  C17 UNL     1     158.633 158.519 169.668  0.00  0.00    +0.000 A 
ATOM     13  C18 UNL     1     157.351 158.101 169.405  0.00  0.00    +0.000 A 
ENDBRANCH   1   3
BRANCH   1  14
ATOM     14  C8  UNL     1     156.069 159.874 172.166  0.00  0.00    +0.000 C 
ATOM     15  C9  UNL     1     155.505 159.689 173.538  0.00  0.00    +0.000 C 
BRANCH  14  16
ATOM     16  C7  UNL     1     157.081 160.931 172.041  0.00  0.00    +0.000 C 
BRANCH  16  17
ATOM     17  C6  UNL     1     157.209 161.745 170.818  0.00  0.00    +0.000 C 
BRANCH  17  18
ATOM     18  C5  UNL     1     155.951 161.999 170.104  0.00  0.00    +0.000 C 
BRANCH  18  19
ATOM     19  N1  UNL     1     156.081 161.902 168.650  0.00  0.00    +0.000 NA
BRANCH  19  21
ATOM     20  C1  UNL     1     157.403 161.258 166.778  0.00  0.00    +0.000 C 
ATOM     21  C2  UNL     1     157.447 161.738 168.232  0.00  0.00    +0.000 C 
ENDBRANCH  19  21
BRANCH  19  22
ATOM     22  C3  UNL     1     155.200 160.892 168.110  0.00  0.00    +0.000 C 
ATOM     23  C4  UNL     1     153.788 161.269 168.415  0.00  0.00    +0.000 C 
ENDBRANCH  19  22
ENDBRANCH  18  19
ENDBRANCH  17  18
ENDBRANCH  16  17
ENDBRANCH  14  16
ENDBRANCH   1  14
TORSDOF 8
ENDMDL
MODEL 8
REMARK VINA RESULT:      -4.6      3.898      7.517
REMARK  Name = ./3D_structures\o45_MMV000008_3D.pdb
REMARK  11 active torsions:
REMARK  status: ('A' for Active; 'I' for Inactive)
REMARK    1  A    between atoms: C1_1  and  C2_2
REMARK    2  A    between atoms: C2_2  and  N1_3
REMARK    3  A    between atoms: N1_3  and  C3_4
REMARK    4  A    between atoms: N1_3  and  C5_6
REMARK    5  A    between atoms: C3_4  and  C4_5
REMARK    6  A    between atoms: C5_6  and  C6_7
REMARK    7  A    between atoms: C6_7  and  C7_8
REMARK    8  A    between atoms: C7_8  and  C8_9
REMARK    9  A    between atoms: C8_9  and  C9_10
REMARK   10  A    between atoms: C8_9  and  N2_11
REMARK   11  A    between atoms: N2_11  and  C10_12
REMARK                            x       y       z     vdW  Elec       q    Type
REMARK                         _______ _______ _______ _____ _____    ______ ____
ROOT
ATOM      1  N2  UNL     1     160.189 158.381 166.432  0.00  0.00    +0.000 N 
ATOM      2  H21 UNL     1     160.287 159.392 166.244  0.00  0.00    +0.000 HD
ENDROOT
BRANCH   1   3
ATOM      3  C10 UNL     1     158.931 157.837 166.763  0.00  0.00    +0.000 A 
ATOM      4  C11 UNL     1     158.226 157.116 165.822  0.00  0.00    +0.000 A 
ATOM      5  C12 UNL     1     156.988 156.553 166.132  0.00  0.00    +0.000 A 
ATOM      6  N3  UNL     1     156.464 156.708 167.359  0.00  0.00    +0.000 NA
ATOM      7  C13 UNL     1     157.113 157.396 168.291  0.00  0.00    +0.000 A 
ATOM      8  C14 UNL     1     156.515 157.512 169.521  0.00  0.00    +0.000 A 
ATOM      9  C15 UNL     1     157.162 158.217 170.503  0.00  0.00    +0.000 A 
ATOM     10 CL1  UNL     1     156.402 158.371 172.084  0.00  0.00    +0.000 Cl
ATOM     11  C16 UNL     1     158.384 158.791 170.248  0.00  0.00    +0.000 A 
ATOM     12  C17 UNL     1     158.998 158.675 168.996  0.00  0.00    +0.000 A 
ATOM     13  C18 UNL     1     158.358 157.971 168.004  0.00  0.00    +0.000 A 
ENDBRANCH   1   3
BRANCH   1  14
ATOM     14  C8  UNL     1     161.390 157.516 166.351  0.00  0.00    +0.000 C 
ATOM     15  C9  UNL     1     162.007 157.654 164.997  0.00  0.00    +0.000 C 
BRANCH  14  16
ATOM     16  C7  UNL     1     162.280 157.817 167.480  0.00  0.00    +0.000 C 
BRANCH  16  17
ATOM     17  C6  UNL     1     163.640 157.255 167.571  0.00  0.00    +0.000 C 
BRANCH  17  18
ATOM     18  C5  UNL     1     164.640 158.139 168.182  0.00  0.00    +0.000 C 
BRANCH  18  19
ATOM     19  N1  UNL     1     165.853 158.284 167.376  0.00  0.00    +0.000 NA
BRANCH  19  21
ATOM     20  C1  UNL     1     165.513 160.523 166.645  0.00  0.00    +0.000 C 
ATOM     21  C2  UNL     1     165.632 159.065 166.190  0.00  0.00    +0.000 C 
ENDBRANCH  19  21
BRANCH  19  22
ATOM     22  C3  UNL     1     166.959 158.766 168.173  0.00  0.00    +0.000 C 
ATOM     23  C4  UNL     1     166.722 158.399 169.600  0.00  0.00    +0.000 C 
ENDBRANCH  19  22
ENDBRANCH  18  19
ENDBRANCH  17  18
ENDBRANCH  16  17
ENDBRANCH  14  16
ENDBRANCH   1  14
TORSDOF 8
ENDMDL
MODEL 9
REMARK VINA RESULT:      -4.6      2.580      5.895
REMARK  Name = ./3D_structures\o45_MMV000008_3D.pdb
REMARK  11 active torsions:
REMARK  status: ('A' for Active; 'I' for Inactive)
REMARK    1  A    between atoms: C1_1  and  C2_2
REMARK    2  A    between atoms: C2_2  and  N1_3
REMARK    3  A    between atoms: N1_3  and  C3_4
REMARK    4  A    between atoms: N1_3  and  C5_6
REMARK    5  A    between atoms: C3_4  and  C4_5
REMARK    6  A    between atoms: C5_6  and  C6_7
REMARK    7  A    between atoms: C6_7  and  C7_8
REMARK    8  A    between atoms: C7_8  and  C8_9
REMARK    9  A    between atoms: C8_9  and  C9_10
REMARK   10  A    between atoms: C8_9  and  N2_11
REMARK   11  A    between atoms: N2_11  and  C10_12
REMARK                            x       y       z     vdW  Elec       q    Type
REMARK                         _______ _______ _______ _____ _____    ______ ____
ROOT
ATOM      1  N2  UNL     1     155.422 158.133 170.521  0.00  0.00    +0.000 N 
ATOM      2  H21 UNL     1     155.195 157.253 171.011  0.00  0.00    +0.000 HD
ENDROOT
BRANCH   1   3
ATOM      3  C10 UNL     1     154.929 158.372 169.222  0.00  0.00    +0.000 A 
ATOM      4  C11 UNL     1     153.852 159.215 169.041  0.00  0.00    +0.000 A 
ATOM      5  C12 UNL     1     153.359 159.481 167.763  0.00  0.00    +0.000 A 
ATOM      6  N3  UNL     1     153.931 158.916 166.687  0.00  0.00    +0.000 NA
ATOM      7  C13 UNL     1     154.969 158.099 166.822  0.00  0.00    +0.000 A 
ATOM      8  C14 UNL     1     155.500 157.559 165.677  0.00  0.00    +0.000 A 
ATOM      9  C15 UNL     1     156.572 156.711 165.785  0.00  0.00    +0.000 A 
ATOM     10 CL1  UNL     1     157.259 156.014 164.322  0.00  0.00    +0.000 Cl
ATOM     11  C16 UNL     1     157.095 156.418 167.022  0.00  0.00    +0.000 A 
ATOM     12  C17 UNL     1     156.557 156.966 168.191  0.00  0.00    +0.000 A 
ATOM     13  C18 UNL     1     155.483 157.816 168.094  0.00  0.00    +0.000 A 
ENDBRANCH   1   3
BRANCH   1  14
ATOM     14  C8  UNL     1     156.274 159.135 171.203  0.00  0.00    +0.000 C 
ATOM     15  C9  UNL     1     155.641 159.521 172.500  0.00  0.00    +0.000 C 
BRANCH  14  16
ATOM     16  C7  UNL     1     157.645 158.616 171.304  0.00  0.00    +0.000 C 
BRANCH  16  17
ATOM     17  C6  UNL     1     158.576 158.652 170.161  0.00  0.00    +0.000 C 
BRANCH  17  18
ATOM     18  C5  UNL     1     158.575 159.905 169.395  0.00  0.00    +0.000 C 
BRANCH  18  19
ATOM     19  N1  UNL     1     159.147 159.763 168.055  0.00  0.00    +0.000 NA
BRANCH  19  21
ATOM     20  C1  UNL     1     158.794 159.634 165.705  0.00  0.00    +0.000 C 
ATOM     21  C2  UNL     1     158.234 160.174 167.024  0.00  0.00    +0.000 C 
ENDBRANCH  19  21
BRANCH  19  22
ATOM     22  C3  UNL     1     160.434 160.413 167.962  0.00  0.00    +0.000 C 
ATOM     23  C4  UNL     1     160.405 161.662 168.778  0.00  0.00    +0.000 C 
ENDBRANCH  19  22
ENDBRANCH  18  19
ENDBRANCH  17  18
ENDBRANCH  16  17
ENDBRANCH  14  16
ENDBRANCH   1  14
TORSDOF 8
ENDMDL
