MODEL 1
REMARK VINA RESULT:      -6.7      0.000      0.000
REMARK  Name = ./3D_structures\o47_MMV102833_3D.pdb
REMARK  2 active torsions:
REMARK  status: ('A' for Active; 'I' for Inactive)
REMARK    1  A    between atoms: C4_5  and  C7_8
REMARK    2  A    between atoms: C9_12  and  C10_14
REMARK                            x       y       z     vdW  Elec       q    Type
REMARK                         _______ _______ _______ _____ _____    ______ ____
ROOT
ATOM      1  C7  UNL     1     161.982 139.192 163.195  0.00  0.00    +0.000 A 
ATOM      2  O1  UNL     1     162.109 140.150 164.085  0.00  0.00    +0.000 OA
ATOM      3  C8  UNL     1     161.382 139.889 165.139  0.00  0.00    +0.000 A 
ATOM      4  N1  UNL     1     161.215 140.636 166.329  0.00  0.00    +0.000 N 
ATOM      5  C9  UNL     1     161.847 141.863 166.589  0.00  0.00    +0.000 C 
ATOM      6  O2  UNL     1     162.606 142.334 165.722  0.00  0.00    +0.000 OA
ATOM      7  N3  UNL     1     160.784 138.717 164.881  0.00  0.00    +0.000 NA
ATOM      8  N4  UNL     1     161.151 138.279 163.679  0.00  0.00    +0.000 NA
ATOM      9  H5  UNL     1     160.583 140.281 167.097  0.00  0.00    +0.000 HD
ENDROOT
BRANCH   5  10
ATOM     10  C10 UNL     1     161.614 142.582 167.871  0.00  0.00    +0.000 A 
ATOM     11  N2  UNL     1     161.951 142.647 168.975  0.00  0.00    +0.000 NA
ATOM     12  C11 UNL     1     161.554 143.423 169.954  0.00  0.00    +0.000 A 
ATOM     13  C12 UNL     1     161.967 143.497 171.290  0.00  0.00    +0.000 A 
ATOM     14  C13 UNL     1     161.431 144.383 172.181  0.00  0.00    +0.000 A 
ATOM     15  C14 UNL     1     160.447 145.263 171.819  0.00  0.00    +0.000 A 
ATOM     16  C15 UNL     1     159.994 145.236 170.494  0.00  0.00    +0.000 A 
ATOM     17  C16 UNL     1     160.563 144.324 169.629  0.00  0.00    +0.000 A 
ATOM     18  S1  UNL     1     160.297 143.939 167.866  0.00  0.00    +0.000 S 
ENDBRANCH   5  10
BRANCH   1  23
ATOM     19 CL1  UNL     1     164.867 139.173 157.952  0.00  0.00    +0.000 Cl
ATOM     20  C1  UNL     1     164.033 139.176 159.490  0.00  0.00    +0.000 A 
ATOM     21  C2  UNL     1     164.724 138.904 160.653  0.00  0.00    +0.000 A 
ATOM     22  C3  UNL     1     164.017 138.919 161.840  0.00  0.00    +0.000 A 
ATOM     23  C4  UNL     1     162.669 139.192 161.911  0.00  0.00    +0.000 A 
ATOM     24  C5  UNL     1     162.015 139.458 160.729  0.00  0.00    +0.000 A 
ATOM     25  C6  UNL     1     162.687 139.453 159.515  0.00  0.00    +0.000 A 
ENDBRANCH   1  23
TORSDOF 2
ENDMDL
MODEL 2
REMARK VINA RESULT:      -6.6     21.125     24.502
REMARK  Name = ./3D_structures\o47_MMV102833_3D.pdb
REMARK  2 active torsions:
REMARK  status: ('A' for Active; 'I' for Inactive)
REMARK    1  A    between atoms: C4_5  and  C7_8
REMARK    2  A    between atoms: C9_12  and  C10_14
REMARK                            x       y       z     vdW  Elec       q    Type
REMARK                         _______ _______ _______ _____ _____    ______ ____
ROOT
ATOM      1  C7  UNL     1     151.592 159.142 169.511  0.00  0.00    +0.000 A 
ATOM      2  O1  UNL     1     151.157 160.250 168.956  0.00  0.00    +0.000 OA
ATOM      3  C8  UNL     1     149.851 160.252 168.910  0.00  0.00    +0.000 A 
ATOM      4  N1  UNL     1     148.966 161.232 168.401  0.00  0.00    +0.000 N 
ATOM      5  C9  UNL     1     149.376 162.445 167.824  0.00  0.00    +0.000 C 
ATOM      6  O2  UNL     1     150.596 162.685 167.750  0.00  0.00    +0.000 OA
ATOM      7  N3  UNL     1     149.471 159.091 169.462  0.00  0.00    +0.000 NA
ATOM      8  N4  UNL     1     150.543 158.398 169.837  0.00  0.00    +0.000 NA
ATOM      9  H5  UNL     1     147.922 161.080 168.440  0.00  0.00    +0.000 HD
ENDROOT
BRANCH   5  10
ATOM     10  C10 UNL     1     148.376 163.421 167.314  0.00  0.00    +0.000 A 
ATOM     11  N2  UNL     1     148.252 164.488 166.885  0.00  0.00    +0.000 NA
ATOM     12  C11 UNL     1     147.187 165.142 166.490  0.00  0.00    +0.000 A 
ATOM     13  C12 UNL     1     147.045 166.434 165.971  0.00  0.00    +0.000 A 
ATOM     14  C13 UNL     1     145.835 166.956 165.609  0.00  0.00    +0.000 A 
ATOM     15  C14 UNL     1     144.675 166.241 165.734  0.00  0.00    +0.000 A 
ATOM     16  C15 UNL     1     144.755 164.940 166.248  0.00  0.00    +0.000 A 
ATOM     17  C16 UNL     1     145.998 164.454 166.600  0.00  0.00    +0.000 A 
ATOM     18  S1  UNL     1     146.568 162.865 167.292  0.00  0.00    +0.000 S 
ENDBRANCH   5  10
BRANCH   1  23
ATOM     19 CL1  UNL     1     157.396 157.960 170.368  0.00  0.00    +0.000 Cl
ATOM     20  C1  UNL     1     155.700 158.314 170.125  0.00  0.00    +0.000 A 
ATOM     21  C2  UNL     1     155.100 159.346 170.818  0.00  0.00    +0.000 A 
ATOM     22  C3  UNL     1     153.759 159.583 170.589  0.00  0.00    +0.000 A 
ATOM     23  C4  UNL     1     153.003 158.841 169.708  0.00  0.00    +0.000 A 
ATOM     24  C5  UNL     1     153.637 157.820 169.036  0.00  0.00    +0.000 A 
ATOM     25  C6  UNL     1     154.983 157.548 169.237  0.00  0.00    +0.000 A 
ENDBRANCH   1  23
TORSDOF 2
ENDMDL
MODEL 3
REMARK VINA RESULT:      -6.5     21.404     24.840
REMARK  Name = ./3D_structures\o47_MMV102833_3D.pdb
REMARK  2 active torsions:
REMARK  status: ('A' for Active; 'I' for Inactive)
REMARK    1  A    between atoms: C4_5  and  C7_8
REMARK    2  A    between atoms: C9_12  and  C10_14
REMARK                            x       y       z     vdW  Elec       q    Type
REMARK                         _______ _______ _______ _____ _____    ______ ____
ROOT
ATOM      1  C7  UNL     1     150.001 158.292 169.792  0.00  0.00    +0.000 A 
ATOM      2  O1  UNL     1     149.100 159.133 169.338  0.00  0.00    +0.000 OA
ATOM      3  C8  UNL     1     149.676 160.223 168.905  0.00  0.00    +0.000 A 
ATOM      4  N1  UNL     1     149.100 161.385 168.338  0.00  0.00    +0.000 N 
ATOM      5  C9  UNL     1     147.723 161.567 168.133  0.00  0.00    +0.000 C 
ATOM      6  O2  UNL     1     146.947 160.652 168.469  0.00  0.00    +0.000 OA
ATOM      7  N3  UNL     1     150.989 160.040 169.106  0.00  0.00    +0.000 NA
ATOM      8  N4  UNL     1     151.198 158.846 169.654  0.00  0.00    +0.000 NA
ATOM      9  H5  UNL     1     149.712 162.191 168.035  0.00  0.00    +0.000 HD
ENDROOT
BRANCH   5  10
ATOM     10  C10 UNL     1     147.202 162.823 167.528  0.00  0.00    +0.000 A 
ATOM     11  N2  UNL     1     147.516 163.858 167.121  0.00  0.00    +0.000 NA
ATOM     12  C11 UNL     1     146.808 164.837 166.612  0.00  0.00    +0.000 A 
ATOM     13  C12 UNL     1     147.195 166.089 166.119  0.00  0.00    +0.000 A 
ATOM     14  C13 UNL     1     146.303 166.995 165.621  0.00  0.00    +0.000 A 
ATOM     15  C14 UNL     1     144.961 166.733 165.572  0.00  0.00    +0.000 A 
ATOM     16  C15 UNL     1     144.513 165.495 166.051  0.00  0.00    +0.000 A 
ATOM     17  C16 UNL     1     145.450 164.610 166.546  0.00  0.00    +0.000 A 
ATOM     18  S1  UNL     1     145.334 162.934 167.255  0.00  0.00    +0.000 S 
ENDBRANCH   5  10
BRANCH   1  23
ATOM     19 CL1  UNL     1     148.728 152.907 172.072  0.00  0.00    +0.000 Cl
ATOM     20  C1  UNL     1     149.110 154.480 171.408  0.00  0.00    +0.000 A 
ATOM     21  C2  UNL     1     150.415 154.930 171.401  0.00  0.00    +0.000 A 
ATOM     22  C3  UNL     1     150.662 156.179 170.865  0.00  0.00    +0.000 A 
ATOM     23  C4  UNL     1     149.674 156.984 170.343  0.00  0.00    +0.000 A 
ATOM     24  C5  UNL     1     148.385 156.499 170.369  0.00  0.00    +0.000 A 
ATOM     25  C6  UNL     1     148.093 155.250 170.898  0.00  0.00    +0.000 A 
ENDBRANCH   1  23
TORSDOF 2
ENDMDL
MODEL 4
REMARK VINA RESULT:      -6.5     15.735     19.910
REMARK  Name = ./3D_structures\o47_MMV102833_3D.pdb
REMARK  2 active torsions:
REMARK  status: ('A' for Active; 'I' for Inactive)
REMARK    1  A    between atoms: C4_5  and  C7_8
REMARK    2  A    between atoms: C9_12  and  C10_14
REMARK                            x       y       z     vdW  Elec       q    Type
REMARK                         _______ _______ _______ _____ _____    ______ ____
ROOT
ATOM      1  C7  UNL     1     156.617 158.762 170.776  0.00  0.00    +0.000 A 
ATOM      2  O1  UNL     1     156.454 158.293 169.560  0.00  0.00    +0.000 OA
ATOM      3  C8  UNL     1     157.582 157.816 169.104  0.00  0.00    +0.000 A 
ATOM      4  N1  UNL     1     157.870 157.219 167.853  0.00  0.00    +0.000 N 
ATOM      5  C9  UNL     1     156.927 157.029 166.830  0.00  0.00    +0.000 C 
ATOM      6  O2  UNL     1     155.756 157.407 167.025  0.00  0.00    +0.000 OA
ATOM      7  N3  UNL     1     158.475 158.002 170.086  0.00  0.00    +0.000 NA
ATOM      8  N4  UNL     1     157.884 158.587 171.125  0.00  0.00    +0.000 NA
ATOM      9  H5  UNL     1     158.846 156.880 167.636  0.00  0.00    +0.000 HD
ENDROOT
BRANCH   5  10
ATOM     10  C10 UNL     1     157.317 156.391 165.544  0.00  0.00    +0.000 A 
ATOM     11  N2  UNL     1     157.393 155.376 164.995  0.00  0.00    +0.000 NA
ATOM     12  C11 UNL     1     157.797 155.078 163.784  0.00  0.00    +0.000 A 
ATOM     13  C12 UNL     1     157.886 153.846 163.125  0.00  0.00    +0.000 A 
ATOM     14  C13 UNL     1     158.339 153.725 161.842  0.00  0.00    +0.000 A 
ATOM     15  C14 UNL     1     158.739 154.813 161.114  0.00  0.00    +0.000 A 
ATOM     16  C15 UNL     1     158.672 156.073 161.721  0.00  0.00    +0.000 A 
ATOM     17  C16 UNL     1     158.208 156.148 163.019  0.00  0.00    +0.000 A 
ATOM     18  S1  UNL     1     157.957 157.532 164.179  0.00  0.00    +0.000 S 
ENDBRANCH   5  10
BRANCH   1  23
ATOM     19 CL1  UNL     1     152.162 161.223 173.925  0.00  0.00    +0.000 Cl
ATOM     20  C1  UNL     1     153.458 160.504 172.995  0.00  0.00    +0.000 A 
ATOM     21  C2  UNL     1     153.286 160.246 171.650  0.00  0.00    +0.000 A 
ATOM     22  C3  UNL     1     154.341 159.677 170.963  0.00  0.00    +0.000 A 
ATOM     23  C4  UNL     1     155.543 159.361 171.557  0.00  0.00    +0.000 A 
ATOM     24  C5  UNL     1     155.676 159.633 172.900  0.00  0.00    +0.000 A 
ATOM     25  C6  UNL     1     154.641 160.204 173.627  0.00  0.00    +0.000 A 
ENDBRANCH   1  23
TORSDOF 2
ENDMDL
MODEL 5
REMARK VINA RESULT:      -6.5     22.043     25.556
REMARK  Name = ./3D_structures\o47_MMV102833_3D.pdb
REMARK  2 active torsions:
REMARK  status: ('A' for Active; 'I' for Inactive)
REMARK    1  A    between atoms: C4_5  and  C7_8
REMARK    2  A    between atoms: C9_12  and  C10_14
REMARK                            x       y       z     vdW  Elec       q    Type
REMARK                         _______ _______ _______ _____ _____    ______ ____
ROOT
ATOM      1  C7  UNL     1     148.642 165.093 166.770  0.00  0.00    +0.000 A 
ATOM      2  O1  UNL     1     149.180 163.895 166.796  0.00  0.00    +0.000 OA
ATOM      3  C8  UNL     1     150.437 163.970 167.145  0.00  0.00    +0.000 A 
ATOM      4  N1  UNL     1     151.395 162.940 167.300  0.00  0.00    +0.000 N 
ATOM      5  C9  UNL     1     151.131 161.577 167.092  0.00  0.00    +0.000 C 
ATOM      6  O2  UNL     1     149.983 161.240 166.746  0.00  0.00    +0.000 OA
ATOM      7  N3  UNL     1     150.677 165.275 167.341  0.00  0.00    +0.000 NA
ATOM      8  N4  UNL     1     149.570 165.976 167.111  0.00  0.00    +0.000 NA
ATOM      9  H5  UNL     1     152.383 163.170 167.592  0.00  0.00    +0.000 HD
ENDROOT
BRANCH   5  10
ATOM     10  C10 UNL     1     152.200 160.558 167.279  0.00  0.00    +0.000 A 
ATOM     11  N2  UNL     1     152.671 159.836 168.049  0.00  0.00    +0.000 NA
ATOM     12  C11 UNL     1     153.671 158.994 167.944  0.00  0.00    +0.000 A 
ATOM     13  C12 UNL     1     154.236 158.122 168.882  0.00  0.00    +0.000 A 
ATOM     14  C13 UNL     1     155.292 157.305 168.588  0.00  0.00    +0.000 A 
ATOM     15  C14 UNL     1     155.869 157.291 167.347  0.00  0.00    +0.000 A 
ATOM     16  C15 UNL     1     155.344 158.143 166.367  0.00  0.00    +0.000 A 
ATOM     17  C16 UNL     1     154.278 158.950 166.708  0.00  0.00    +0.000 A 
ATOM     18  S1  UNL     1     153.298 160.182 165.786  0.00  0.00    +0.000 S 
ENDBRANCH   5  10
BRANCH   1  23
ATOM     19 CL1  UNL     1     142.908 166.046 165.345  0.00  0.00    +0.000 Cl
ATOM     20  C1  UNL     1     144.581 165.757 165.764  0.00  0.00    +0.000 A 
ATOM     21  C2  UNL     1     144.973 164.524 166.244  0.00  0.00    +0.000 A 
ATOM     22  C3  UNL     1     146.306 164.349 166.560  0.00  0.00    +0.000 A 
ATOM     23  C4  UNL     1     147.250 165.342 166.418  0.00  0.00    +0.000 A 
ATOM     24  C5  UNL     1     146.821 166.558 165.938  0.00  0.00    +0.000 A 
ATOM     25  C6  UNL     1     145.490 166.776 165.609  0.00  0.00    +0.000 A 
ENDBRANCH   1  23
TORSDOF 2
ENDMDL
MODEL 6
REMARK VINA RESULT:      -6.4     20.653     24.212
REMARK  Name = ./3D_structures\o47_MMV102833_3D.pdb
REMARK  2 active torsions:
REMARK  status: ('A' for Active; 'I' for Inactive)
REMARK    1  A    between atoms: C4_5  and  C7_8
REMARK    2  A    between atoms: C9_12  and  C10_14
REMARK                            x       y       z     vdW  Elec       q    Type
REMARK                         _______ _______ _______ _____ _____    ______ ____
ROOT
ATOM      1  C7  UNL     1     148.468 162.206 167.898  0.00  0.00    +0.000 A 
ATOM      2  O1  UNL     1     149.762 162.117 168.106  0.00  0.00    +0.000 OA
ATOM      3  C8  UNL     1     150.058 160.957 168.630  0.00  0.00    +0.000 A 
ATOM      4  N1  UNL     1     151.315 160.434 169.015  0.00  0.00    +0.000 N 
ATOM      5  C9  UNL     1     152.532 161.124 168.887  0.00  0.00    +0.000 C 
ATOM      6  O2  UNL     1     152.516 162.271 168.405  0.00  0.00    +0.000 OA
ATOM      7  N3  UNL     1     148.891 160.308 168.747  0.00  0.00    +0.000 NA
ATOM      8  N4  UNL     1     147.902 161.075 168.296  0.00  0.00    +0.000 NA
ATOM      9  H5  UNL     1     151.386 159.465 169.429  0.00  0.00    +0.000 HD
ENDROOT
BRANCH   5  10
ATOM     10  C10 UNL     1     153.811 160.496 169.319  0.00  0.00    +0.000 A 
ATOM     11  N2  UNL     1     154.381 160.084 170.236  0.00  0.00    +0.000 NA
ATOM     12  C11 UNL     1     155.575 159.552 170.342  0.00  0.00    +0.000 A 
ATOM     13  C12 UNL     1     156.260 159.054 171.457  0.00  0.00    +0.000 A 
ATOM     14  C13 UNL     1     157.519 158.529 171.377  0.00  0.00    +0.000 A 
ATOM     15  C14 UNL     1     158.195 158.459 170.190  0.00  0.00    +0.000 A 
ATOM     16  C15 UNL     1     157.560 158.942 169.039  0.00  0.00    +0.000 A 
ATOM     17  C16 UNL     1     156.288 159.463 169.167  0.00  0.00    +0.000 A 
ATOM     18  S1  UNL     1     155.109 160.188 167.979  0.00  0.00    +0.000 S 
ENDBRANCH   5  10
BRANCH   1  23
ATOM     19 CL1  UNL     1     145.892 167.063 165.534  0.00  0.00    +0.000 Cl
ATOM     20  C1  UNL     1     146.654 165.649 166.226  0.00  0.00    +0.000 A 
ATOM     21  C2  UNL     1     147.988 165.683 166.578  0.00  0.00    +0.000 A 
ATOM     22  C3  UNL     1     148.541 164.539 167.120  0.00  0.00    +0.000 A 
ATOM     23  C4  UNL     1     147.825 163.379 167.322  0.00  0.00    +0.000 A 
ATOM     24  C5  UNL     1     146.498 163.385 166.957  0.00  0.00    +0.000 A 
ATOM     25  C6  UNL     1     145.903 164.513 166.409  0.00  0.00    +0.000 A 
ENDBRANCH   1  23
TORSDOF 2
ENDMDL
MODEL 7
REMARK VINA RESULT:      -6.4     20.947     24.588
REMARK  Name = ./3D_structures\o47_MMV102833_3D.pdb
REMARK  2 active torsions:
REMARK  status: ('A' for Active; 'I' for Inactive)
REMARK    1  A    between atoms: C4_5  and  C7_8
REMARK    2  A    between atoms: C9_12  and  C10_14
REMARK                            x       y       z     vdW  Elec       q    Type
REMARK                         _______ _______ _______ _____ _____    ______ ____
ROOT
ATOM      1  C7  UNL     1     148.673 163.180 168.125  0.00  0.00    +0.000 A 
ATOM      2  O1  UNL     1     149.725 162.637 167.556  0.00  0.00    +0.000 OA
ATOM      3  C8  UNL     1     150.233 161.714 168.329  0.00  0.00    +0.000 A 
ATOM      4  N1  UNL     1     151.358 160.881 168.122  0.00  0.00    +0.000 N 
ATOM      5  C9  UNL     1     152.165 160.912 166.973  0.00  0.00    +0.000 C 
ATOM      6  O2  UNL     1     151.882 161.722 166.070  0.00  0.00    +0.000 OA
ATOM      7  N3  UNL     1     149.456 161.694 169.422  0.00  0.00    +0.000 NA
ATOM      8  N4  UNL     1     148.488 162.598 169.302  0.00  0.00    +0.000 NA
ATOM      9  H5  UNL     1     151.641 160.176 168.855  0.00  0.00    +0.000 HD
ENDROOT
BRANCH   5  10
ATOM     10  C10 UNL     1     153.331 159.997 166.838  0.00  0.00    +0.000 A 
ATOM     11  N2  UNL     1     154.190 159.684 166.129  0.00  0.00    +0.000 NA
ATOM     12  C11 UNL     1     155.140 158.792 166.267  0.00  0.00    +0.000 A 
ATOM     13  C12 UNL     1     156.178 158.417 165.405  0.00  0.00    +0.000 A 
ATOM     14  C13 UNL     1     157.090 157.451 165.722  0.00  0.00    +0.000 A 
ATOM     15  C14 UNL     1     157.045 156.782 166.915  0.00  0.00    +0.000 A 
ATOM     16  C15 UNL     1     156.028 157.114 167.819  0.00  0.00    +0.000 A 
ATOM     17  C16 UNL     1     155.129 158.096 167.457  0.00  0.00    +0.000 A 
ATOM     18  S1  UNL     1     153.683 158.836 168.288  0.00  0.00    +0.000 S 
ENDBRANCH   5  10
BRANCH   1  23
ATOM     19 CL1  UNL     1     145.375 167.514 165.645  0.00  0.00    +0.000 Cl
ATOM     20  C1  UNL     1     146.330 166.243 166.375  0.00  0.00    +0.000 A 
ATOM     21  C2  UNL     1     145.741 165.342 167.238  0.00  0.00    +0.000 A 
ATOM     22  C3  UNL     1     146.540 164.359 167.788  0.00  0.00    +0.000 A 
ATOM     23  C4  UNL     1     147.885 164.241 167.513  0.00  0.00    +0.000 A 
ATOM     24  C5  UNL     1     148.436 165.159 166.647  0.00  0.00    +0.000 A 
ATOM     25  C6  UNL     1     147.669 166.163 166.073  0.00  0.00    +0.000 A 
ENDBRANCH   1  23
TORSDOF 2
ENDMDL
MODEL 8
REMARK VINA RESULT:      -6.2     19.166     22.257
REMARK  Name = ./3D_structures\o47_MMV102833_3D.pdb
REMARK  2 active torsions:
REMARK  status: ('A' for Active; 'I' for Inactive)
REMARK    1  A    between atoms: C4_5  and  C7_8
REMARK    2  A    between atoms: C9_12  and  C10_14
REMARK                            x       y       z     vdW  Elec       q    Type
REMARK                         _______ _______ _______ _____ _____    ______ ____
ROOT
ATOM      1  C7  UNL     1     153.899 158.110 168.612  0.00  0.00    +0.000 A 
ATOM      2  O1  UNL     1     153.051 159.047 168.255  0.00  0.00    +0.000 OA
ATOM      3  C8  UNL     1     152.154 159.225 169.187  0.00  0.00    +0.000 A 
ATOM      4  N1  UNL     1     151.059 160.122 169.228  0.00  0.00    +0.000 N 
ATOM      5  C9  UNL     1     150.739 161.028 168.204  0.00  0.00    +0.000 C 
ATOM      6  O2  UNL     1     151.458 161.053 167.188  0.00  0.00    +0.000 OA
ATOM      7  N3  UNL     1     152.468 158.357 170.159  0.00  0.00    +0.000 NA
ATOM      8  N4  UNL     1     153.548 157.662 169.810  0.00  0.00    +0.000 NA
ATOM      9  H5  UNL     1     150.419 160.143 170.067  0.00  0.00    +0.000 HD
ENDROOT
BRANCH   5  10
ATOM     10  C10 UNL     1     149.568 161.938 168.331  0.00  0.00    +0.000 A 
ATOM     11  N2  UNL     1     148.512 162.158 167.915  0.00  0.00    +0.000 NA
ATOM     12  C11 UNL     1     147.637 163.082 168.226  0.00  0.00    +0.000 A 
ATOM     13  C12 UNL     1     146.359 163.342 167.718  0.00  0.00    +0.000 A 
ATOM     14  C13 UNL     1     145.577 164.367 168.172  0.00  0.00    +0.000 A 
ATOM     15  C14 UNL     1     146.001 165.212 169.162  0.00  0.00    +0.000 A 
ATOM     16  C15 UNL     1     147.272 165.000 169.710  0.00  0.00    +0.000 A 
ATOM     17  C16 UNL     1     148.027 163.953 169.221  0.00  0.00    +0.000 A 
ATOM     18  S1  UNL     1     149.689 163.317 169.619  0.00  0.00    +0.000 S 
ENDBRANCH   5  10
BRANCH   1  23
ATOM     19 CL1  UNL     1     158.534 156.326 165.272  0.00  0.00    +0.000 Cl
ATOM     20  C1  UNL     1     157.185 156.846 166.257  0.00  0.00    +0.000 A 
ATOM     21  C2  UNL     1     157.271 156.793 167.634  0.00  0.00    +0.000 A 
ATOM     22  C3  UNL     1     156.177 157.215 168.364  0.00  0.00    +0.000 A 
ATOM     23  C4  UNL     1     155.018 157.680 167.784  0.00  0.00    +0.000 A 
ATOM     24  C5  UNL     1     154.970 157.716 166.408  0.00  0.00    +0.000 A 
ATOM     25  C6  UNL     1     156.046 157.302 165.637  0.00  0.00    +0.000 A 
ENDBRANCH   1  23
TORSDOF 2
ENDMDL
MODEL 9
REMARK VINA RESULT:      -6.2     14.276     16.717
REMARK  Name = ./3D_structures\o47_MMV102833_3D.pdb
REMARK  2 active torsions:
REMARK  status: ('A' for Active; 'I' for Inactive)
REMARK    1  A    between atoms: C4_5  and  C7_8
REMARK    2  A    between atoms: C9_12  and  C10_14
REMARK                            x       y       z     vdW  Elec       q    Type
REMARK                         _______ _______ _______ _____ _____    ______ ____
ROOT
ATOM      1  C7  UNL     1     158.651 155.993 164.969  0.00  0.00    +0.000 A 
ATOM      2  O1  UNL     1     158.101 156.295 166.122  0.00  0.00    +0.000 OA
ATOM      3  C8  UNL     1     158.502 157.472 166.522  0.00  0.00    +0.000 A 
ATOM      4  N1  UNL     1     158.169 158.189 167.697  0.00  0.00    +0.000 N 
ATOM      5  C9  UNL     1     157.293 157.720 168.689  0.00  0.00    +0.000 C 
ATOM      6  O2  UNL     1     156.768 156.601 168.537  0.00  0.00    +0.000 OA
ATOM      7  N3  UNL     1     159.337 157.909 165.569  0.00  0.00    +0.000 NA
ATOM      8  N4  UNL     1     159.434 156.999 164.604  0.00  0.00    +0.000 NA
ATOM      9  H5  UNL     1     158.585 159.143 167.874  0.00  0.00    +0.000 HD
ENDROOT
BRANCH   5  10
ATOM     10  C10 UNL     1     156.998 158.543 169.894  0.00  0.00    +0.000 A 
ATOM     11  N2  UNL     1     156.431 158.546 170.901  0.00  0.00    +0.000 NA
ATOM     12  C11 UNL     1     156.334 159.461 171.834  0.00  0.00    +0.000 A 
ATOM     13  C12 UNL     1     155.645 159.458 173.053  0.00  0.00    +0.000 A 
ATOM     14  C13 UNL     1     155.657 160.521 173.912  0.00  0.00    +0.000 A 
ATOM     15  C14 UNL     1     156.351 161.666 173.630  0.00  0.00    +0.000 A 
ATOM     16  C15 UNL     1     157.060 161.728 172.423  0.00  0.00    +0.000 A 
ATOM     17  C16 UNL     1     157.019 160.631 171.587  0.00  0.00    +0.000 A 
ATOM     18  S1  UNL     1     157.765 160.270 169.962  0.00  0.00    +0.000 S 
ENDBRANCH   5  10
BRANCH   1  23
ATOM     19 CL1  UNL     1     157.660 150.829 162.111  0.00  0.00    +0.000 Cl
ATOM     20  C1  UNL     1     157.955 152.333 162.954  0.00  0.00    +0.000 A 
ATOM     21  C2  UNL     1     158.661 152.336 164.141  0.00  0.00    +0.000 A 
ATOM     22  C3  UNL     1     158.866 153.551 164.765  0.00  0.00    +0.000 A 
ATOM     23  C4  UNL     1     158.402 154.745 164.260  0.00  0.00    +0.000 A 
ATOM     24  C5  UNL     1     157.702 154.701 163.075  0.00  0.00    +0.000 A 
ATOM     25  C6  UNL     1     157.474 153.502 162.415  0.00  0.00    +0.000 A 
ENDBRANCH   1  23
TORSDOF 2
ENDMDL
