MODEL 1
REMARK VINA RESULT:      -6.4      0.000      0.000
REMARK  Name = ./3D_structures\o49_MMV1578577_3D.pdb
REMARK  2 active torsions:
REMARK  status: ('A' for Active; 'I' for Inactive)
REMARK    1  A    between atoms: C1_2  and  C12_14
REMARK    2  A    between atoms: N1_3  and  C2_4
REMARK                            x       y       z     vdW  Elec       q    Type
REMARK                         _______ _______ _______ _____ _____    ______ ____
ROOT
ATOM      1  O1  UNL     1     155.640 156.853 166.552  0.00  0.00    +0.000 OA
ATOM      2  C1  UNL     1     156.876 156.658 166.468  0.00  0.00    +0.000 C 
ATOM      3  N1  UNL     1     157.657 157.196 167.528  0.00  0.00    +0.000 N 
ATOM      4  H1  UNL     1     158.684 157.050 167.482  0.00  0.00    +0.000 HD
ENDROOT
BRANCH   3   5
ATOM      5  C2  UNL     1     157.085 157.921 168.638  0.00  0.00    +0.000 C 
ATOM      6  C3  UNL     1     158.208 158.154 169.626  0.00  0.00    +0.000 C 
ATOM      7  C4  UNL     1     157.784 158.889 170.855  0.00  0.00    +0.000 C 
ATOM      8  C5  UNL     1     156.713 158.051 171.535  0.00  0.00    +0.000 C 
ATOM      9  C6  UNL     1     155.580 157.901 170.569  0.00  0.00    +0.000 C 
ATOM     10  C7  UNL     1     155.032 159.259 170.214  0.00  0.00    +0.000 C 
ATOM     11  C8  UNL     1     156.122 160.003 169.474  0.00  0.00    +0.000 C 
ATOM     12  C9  UNL     1     157.258 160.243 170.435  0.00  0.00    +0.000 C 
ATOM     13  C10 UNL     1     156.566 159.278 168.230  0.00  0.00    +0.000 C 
ATOM     14  C11 UNL     1     155.949 157.174 169.301  0.00  0.00    +0.000 C 
ENDBRANCH   3   5
BRANCH   2  15
ATOM     15  C12 UNL     1     157.482 155.925 165.351  0.00  0.00    +0.000 A 
ATOM     16  C13 UNL     1     158.814 155.649 165.137  0.00  0.00    +0.000 A 
ATOM     17  C14 UNL     1     158.979 154.936 163.972  0.00  0.00    +0.000 A 
ATOM     18  C15 UNL     1     160.093 154.422 163.317  0.00  0.00    +0.000 A 
ATOM     19  C16 UNL     1     159.946 153.731 162.132  0.00  0.00    +0.000 A 
ATOM     20  C17 UNL     1     158.683 153.568 161.625  0.00  0.00    +0.000 A 
ATOM     21  C18 UNL     1     157.575 154.083 162.282  0.00  0.00    +0.000 A 
ATOM     22  C19 UNL     1     157.695 154.777 163.466  0.00  0.00    +0.000 A 
ATOM     23  N2  UNL     1     156.832 155.378 164.312  0.00  0.00    +0.000 N 
ATOM     24  H22 UNL     1     155.794 155.399 164.155  0.00  0.00    +0.000 HD
ENDBRANCH   2  15
TORSDOF 2
ENDMDL
MODEL 2
REMARK VINA RESULT:      -6.2      1.242      7.695
REMARK  Name = ./3D_structures\o49_MMV1578577_3D.pdb
REMARK  2 active torsions:
REMARK  status: ('A' for Active; 'I' for Inactive)
REMARK    1  A    between atoms: C1_2  and  C12_14
REMARK    2  A    between atoms: N1_3  and  C2_4
REMARK                            x       y       z     vdW  Elec       q    Type
REMARK                         _______ _______ _______ _____ _____    ______ ____
ROOT
ATOM      1  O1  UNL     1     156.220 156.102 165.553  0.00  0.00    +0.000 OA
ATOM      2  C1  UNL     1     157.249 156.382 166.213  0.00  0.00    +0.000 C 
ATOM      3  N1  UNL     1     158.487 156.082 165.581  0.00  0.00    +0.000 N 
ATOM      4  H1  UNL     1     159.355 156.304 166.107  0.00  0.00    +0.000 HD
ENDROOT
BRANCH   3   5
ATOM      5  C2  UNL     1     158.577 155.496 164.264  0.00  0.00    +0.000 C 
ATOM      6  C3  UNL     1     158.058 156.536 163.294  0.00  0.00    +0.000 C 
ATOM      7  C4  UNL     1     158.068 156.086 161.869  0.00  0.00    +0.000 C 
ATOM      8  C5  UNL     1     157.179 154.857 161.778  0.00  0.00    +0.000 C 
ATOM      9  C6  UNL     1     157.756 153.816 162.685  0.00  0.00    +0.000 C 
ATOM     10  C7  UNL     1     159.157 153.479 162.244  0.00  0.00    +0.000 C 
ATOM     11  C8  UNL     1     159.999 154.721 162.437  0.00  0.00    +0.000 C 
ATOM     12  C9  UNL     1     159.498 155.777 161.485  0.00  0.00    +0.000 C 
ATOM     13  C10 UNL     1     160.001 155.194 163.868  0.00  0.00    +0.000 C 
ATOM     14  C11 UNL     1     157.782 154.216 164.137  0.00  0.00    +0.000 C 
ENDBRANCH   3   5
BRANCH   2  15
ATOM     15  C12 UNL     1     157.186 156.978 167.552  0.00  0.00    +0.000 A 
ATOM     16  C13 UNL     1     158.063 157.869 168.131  0.00  0.00    +0.000 A 
ATOM     17  C14 UNL     1     157.654 158.193 169.404  0.00  0.00    +0.000 A 
ATOM     18  C15 UNL     1     158.171 159.026 170.389  0.00  0.00    +0.000 A 
ATOM     19  C16 UNL     1     157.524 159.155 171.601  0.00  0.00    +0.000 A 
ATOM     20  C17 UNL     1     156.370 158.446 171.802  0.00  0.00    +0.000 A 
ATOM     21  C18 UNL     1     155.857 157.616 170.816  0.00  0.00    +0.000 A 
ATOM     22  C19 UNL     1     156.484 157.469 169.598  0.00  0.00    +0.000 A 
ATOM     23  N2  UNL     1     156.237 156.759 168.476  0.00  0.00    +0.000 N 
ATOM     24  H22 UNL     1     155.405 156.128 168.368  0.00  0.00    +0.000 HD
ENDBRANCH   2  15
TORSDOF 2
ENDMDL
MODEL 3
REMARK VINA RESULT:      -5.9      1.375      7.900
REMARK  Name = ./3D_structures\o49_MMV1578577_3D.pdb
REMARK  2 active torsions:
REMARK  status: ('A' for Active; 'I' for Inactive)
REMARK    1  A    between atoms: C1_2  and  C12_14
REMARK    2  A    between atoms: N1_3  and  C2_4
REMARK                            x       y       z     vdW  Elec       q    Type
REMARK                         _______ _______ _______ _____ _____    ______ ____
ROOT
ATOM      1  O1  UNL     1     157.933 157.524 164.831  0.00  0.00    +0.000 OA
ATOM      2  C1  UNL     1     157.995 156.733 165.802  0.00  0.00    +0.000 C 
ATOM      3  N1  UNL     1     158.361 155.396 165.485  0.00  0.00    +0.000 N 
ATOM      4  H1  UNL     1     158.419 154.720 166.271  0.00  0.00    +0.000 HD
ENDROOT
BRANCH   3   5
ATOM      5  C2  UNL     1     158.649 154.957 164.139  0.00  0.00    +0.000 C 
ATOM      6  C3  UNL     1     158.794 153.451 164.198  0.00  0.00    +0.000 C 
ATOM      7  C4  UNL     1     159.108 152.826 162.879  0.00  0.00    +0.000 C 
ATOM      8  C5  UNL     1     160.425 153.417 162.402  0.00  0.00    +0.000 C 
ATOM      9  C6  UNL     1     160.235 154.895 162.275  0.00  0.00    +0.000 C 
ATOM     10  C7  UNL     1     159.143 155.183 161.277  0.00  0.00    +0.000 C 
ATOM     11  C8  UNL     1     157.854 154.639 161.852  0.00  0.00    +0.000 C 
ATOM     12  C9  UNL     1     157.974 153.139 161.929  0.00  0.00    +0.000 C 
ATOM     13  C10 UNL     1     157.518 155.255 163.186  0.00  0.00    +0.000 C 
ATOM     14  C11 UNL     1     159.904 155.583 163.575  0.00  0.00    +0.000 C 
ENDBRANCH   3   5
BRANCH   2  15
ATOM     15  C12 UNL     1     157.708 157.153 167.178  0.00  0.00    +0.000 A 
ATOM     16  C13 UNL     1     156.653 156.780 167.981  0.00  0.00    +0.000 A 
ATOM     17  C14 UNL     1     156.739 157.392 169.210  0.00  0.00    +0.000 A 
ATOM     18  C15 UNL     1     155.948 157.355 170.352  0.00  0.00    +0.000 A 
ATOM     19  C16 UNL     1     156.294 158.096 171.463  0.00  0.00    +0.000 A 
ATOM     20  C17 UNL     1     157.430 158.860 171.408  0.00  0.00    +0.000 A 
ATOM     21  C18 UNL     1     158.217 158.894 170.266  0.00  0.00    +0.000 A 
ATOM     22  C19 UNL     1     157.892 158.164 169.143  0.00  0.00    +0.000 A 
ATOM     23  N2  UNL     1     158.442 157.997 167.922  0.00  0.00    +0.000 N 
ATOM     24  H22 UNL     1     159.326 158.475 167.619  0.00  0.00    +0.000 HD
ENDBRANCH   2  15
TORSDOF 2
ENDMDL
MODEL 4
REMARK VINA RESULT:      -5.8      4.744      7.726
REMARK  Name = ./3D_structures\o49_MMV1578577_3D.pdb
REMARK  2 active torsions:
REMARK  status: ('A' for Active; 'I' for Inactive)
REMARK    1  A    between atoms: C1_2  and  C12_14
REMARK    2  A    between atoms: N1_3  and  C2_4
REMARK                            x       y       z     vdW  Elec       q    Type
REMARK                         _______ _______ _______ _____ _____    ______ ____
ROOT
ATOM      1  O1  UNL     1     154.522 159.676 165.944  0.00  0.00    +0.000 OA
ATOM      2  C1  UNL     1     154.323 160.655 166.702  0.00  0.00    +0.000 C 
ATOM      3  N1  UNL     1     154.880 160.547 168.006  0.00  0.00    +0.000 N 
ATOM      4  H1  UNL     1     154.730 161.344 168.654  0.00  0.00    +0.000 HD
ENDROOT
BRANCH   3   5
ATOM      5  C2  UNL     1     155.631 159.396 168.447  0.00  0.00    +0.000 C 
ATOM      6  C3  UNL     1     155.899 159.596 169.925  0.00  0.00    +0.000 C 
ATOM      7  C4  UNL     1     156.685 158.490 170.548  0.00  0.00    +0.000 C 
ATOM      8  C5  UNL     1     158.020 158.422 169.823  0.00  0.00    +0.000 C 
ATOM      9  C6  UNL     1     157.735 158.144 168.381  0.00  0.00    +0.000 C 
ATOM     10  C7  UNL     1     157.003 156.833 168.250  0.00  0.00    +0.000 C 
ATOM     11  C8  UNL     1     155.658 157.001 168.923  0.00  0.00    +0.000 C 
ATOM     12  C9  UNL     1     155.896 157.209 170.396  0.00  0.00    +0.000 C 
ATOM     13  C10 UNL     1     154.847 158.114 168.310  0.00  0.00    +0.000 C 
ATOM     14  C11 UNL     1     156.933 159.222 167.697  0.00  0.00    +0.000 C 
ENDBRANCH   3   5
BRANCH   2  15
ATOM     15  C12 UNL     1     153.564 161.836 166.278  0.00  0.00    +0.000 A 
ATOM     16  C13 UNL     1     153.868 162.730 165.274  0.00  0.00    +0.000 A 
ATOM     17  C14 UNL     1     152.903 163.706 165.186  0.00  0.00    +0.000 A 
ATOM     18  C15 UNL     1     152.739 164.813 164.362  0.00  0.00    +0.000 A 
ATOM     19  C16 UNL     1     151.639 165.634 164.510  0.00  0.00    +0.000 A 
ATOM     20  C17 UNL     1     150.724 165.328 165.482  0.00  0.00    +0.000 A 
ATOM     21  C18 UNL     1     150.892 164.220 166.302  0.00  0.00    +0.000 A 
ATOM     22  C19 UNL     1     151.981 163.386 166.175  0.00  0.00    +0.000 A 
ATOM     23  N2  UNL     1     152.406 162.270 166.803  0.00  0.00    +0.000 N 
ATOM     24  H22 UNL     1     151.883 161.820 167.594  0.00  0.00    +0.000 HD
ENDBRANCH   2  15
TORSDOF 2
ENDMDL
MODEL 5
REMARK VINA RESULT:      -5.8      1.129      2.063
REMARK  Name = ./3D_structures\o49_MMV1578577_3D.pdb
REMARK  2 active torsions:
REMARK  status: ('A' for Active; 'I' for Inactive)
REMARK    1  A    between atoms: C1_2  and  C12_14
REMARK    2  A    between atoms: N1_3  and  C2_4
REMARK                            x       y       z     vdW  Elec       q    Type
REMARK                         _______ _______ _______ _____ _____    ______ ____
ROOT
ATOM      1  O1  UNL     1     158.453 158.252 166.222  0.00  0.00    +0.000 OA
ATOM      2  C1  UNL     1     157.942 157.113 166.348  0.00  0.00    +0.000 C 
ATOM      3  N1  UNL     1     157.226 156.890 167.556  0.00  0.00    +0.000 N 
ATOM      4  H1  UNL     1     156.793 155.955 167.686  0.00  0.00    +0.000 HD
ENDROOT
BRANCH   3   5
ATOM      5  C2  UNL     1     157.083 157.895 168.583  0.00  0.00    +0.000 C 
ATOM      6  C3  UNL     1     156.145 157.318 169.623  0.00  0.00    +0.000 C 
ATOM      7  C4  UNL     1     155.874 158.242 170.765  0.00  0.00    +0.000 C 
ATOM      8  C5  UNL     1     155.239 159.497 170.189  0.00  0.00    +0.000 C 
ATOM      9  C6  UNL     1     156.215 160.092 169.224  0.00  0.00    +0.000 C 
ATOM     10  C7  UNL     1     157.494 160.438 169.944  0.00  0.00    +0.000 C 
ATOM     11  C8  UNL     1     158.107 159.138 170.418  0.00  0.00    +0.000 C 
ATOM     12  C9  UNL     1     157.189 158.539 171.451  0.00  0.00    +0.000 C 
ATOM     13  C10 UNL     1     158.388 158.190 169.281  0.00  0.00    +0.000 C 
ATOM     14  C11 UNL     1     156.538 159.201 168.052  0.00  0.00    +0.000 C 
ENDBRANCH   3   5
BRANCH   2  15
ATOM     15  C12 UNL     1     158.072 156.075 165.320  0.00  0.00    +0.000 A 
ATOM     16  C13 UNL     1     157.592 156.089 164.029  0.00  0.00    +0.000 A 
ATOM     17  C14 UNL     1     157.923 154.924 163.376  0.00  0.00    +0.000 A 
ATOM     18  C15 UNL     1     157.684 154.449 162.092  0.00  0.00    +0.000 A 
ATOM     19  C16 UNL     1     158.152 153.208 161.711  0.00  0.00    +0.000 A 
ATOM     20  C17 UNL     1     158.852 152.467 162.626  0.00  0.00    +0.000 A 
ATOM     21  C18 UNL     1     159.088 152.945 163.907  0.00  0.00    +0.000 A 
ATOM     22  C19 UNL     1     158.631 154.180 164.312  0.00  0.00    +0.000 A 
ATOM     23  N2  UNL     1     158.700 154.896 165.455  0.00  0.00    +0.000 N 
ATOM     24  H22 UNL     1     159.186 154.552 166.319  0.00  0.00    +0.000 HD
ENDBRANCH   2  15
TORSDOF 2
ENDMDL
MODEL 6
REMARK VINA RESULT:      -5.7      2.183      3.775
REMARK  Name = ./3D_structures\o49_MMV1578577_3D.pdb
REMARK  2 active torsions:
REMARK  status: ('A' for Active; 'I' for Inactive)
REMARK    1  A    between atoms: C1_2  and  C12_14
REMARK    2  A    between atoms: N1_3  and  C2_4
REMARK                            x       y       z     vdW  Elec       q    Type
REMARK                         _______ _______ _______ _____ _____    ______ ____
ROOT
ATOM      1  O1  UNL     1     156.581 160.436 168.551  0.00  0.00    +0.000 OA
ATOM      2  C1  UNL     1     156.819 159.226 168.779  0.00  0.00    +0.000 C 
ATOM      3  N1  UNL     1     156.633 158.803 170.124  0.00  0.00    +0.000 N 
ATOM      4  H1  UNL     1     156.824 157.806 170.339  0.00  0.00    +0.000 HD
ENDROOT
BRANCH   3   5
ATOM      5  C2  UNL     1     156.195 159.692 171.174  0.00  0.00    +0.000 C 
ATOM      6  C3  UNL     1     154.780 160.105 170.828  0.00  0.00    +0.000 C 
ATOM      7  C4  UNL     1     154.170 161.046 171.815  0.00  0.00    +0.000 C 
ATOM      8  C5  UNL     1     155.040 162.292 171.846  0.00  0.00    +0.000 C 
ATOM      9  C6  UNL     1     156.412 161.872 172.267  0.00  0.00    +0.000 C 
ATOM     10  C7  UNL     1     156.354 161.243 173.636  0.00  0.00    +0.000 C 
ATOM     11  C8  UNL     1     155.542 159.971 173.511  0.00  0.00    +0.000 C 
ATOM     12  C9  UNL     1     154.128 160.354 173.159  0.00  0.00    +0.000 C 
ATOM     13  C10 UNL     1     156.140 159.008 172.518  0.00  0.00    +0.000 C 
ATOM     14  C11 UNL     1     157.078 160.912 171.315  0.00  0.00    +0.000 C 
ENDBRANCH   3   5
BRANCH   2  15
ATOM     15  C12 UNL     1     157.264 158.302 167.730  0.00  0.00    +0.000 A 
ATOM     16  C13 UNL     1     158.536 158.129 167.229  0.00  0.00    +0.000 A 
ATOM     17  C14 UNL     1     158.544 157.163 166.250  0.00  0.00    +0.000 A 
ATOM     18  C15 UNL     1     159.544 156.625 165.449  0.00  0.00    +0.000 A 
ATOM     19  C16 UNL     1     159.246 155.639 164.530  0.00  0.00    +0.000 A 
ATOM     20  C17 UNL     1     157.948 155.212 164.433  0.00  0.00    +0.000 A 
ATOM     21  C18 UNL     1     156.952 155.751 165.235  0.00  0.00    +0.000 A 
ATOM     22  C19 UNL     1     157.225 156.737 166.159  0.00  0.00    +0.000 A 
ATOM     23  N2  UNL     1     156.494 157.435 167.053  0.00  0.00    +0.000 N 
ATOM     24  H22 UNL     1     155.461 157.299 167.182  0.00  0.00    +0.000 HD
ENDBRANCH   2  15
TORSDOF 2
ENDMDL
MODEL 7
REMARK VINA RESULT:      -5.6      4.588      7.701
REMARK  Name = ./3D_structures\o49_MMV1578577_3D.pdb
REMARK  2 active torsions:
REMARK  status: ('A' for Active; 'I' for Inactive)
REMARK    1  A    between atoms: C1_2  and  C12_14
REMARK    2  A    between atoms: N1_3  and  C2_4
REMARK                            x       y       z     vdW  Elec       q    Type
REMARK                         _______ _______ _______ _____ _____    ______ ____
ROOT
ATOM      1  O1  UNL     1     154.608 159.655 166.512  0.00  0.00    +0.000 OA
ATOM      2  C1  UNL     1     154.508 160.747 167.121  0.00  0.00    +0.000 C 
ATOM      3  N1  UNL     1     155.225 160.838 168.345  0.00  0.00    +0.000 N 
ATOM      4  H1  UNL     1     155.159 161.731 168.870  0.00  0.00    +0.000 HD
ENDROOT
BRANCH   3   5
ATOM      5  C2  UNL     1     156.025 159.756 168.871  0.00  0.00    +0.000 C 
ATOM      6  C3  UNL     1     155.071 158.616 169.160  0.00  0.00    +0.000 C 
ATOM      7  C4  UNL     1     155.737 157.405 169.727  0.00  0.00    +0.000 C 
ATOM      8  C5  UNL     1     156.396 157.822 171.032  0.00  0.00    +0.000 C 
ATOM      9  C6  UNL     1     157.390 158.893 170.710  0.00  0.00    +0.000 C 
ATOM     10  C7  UNL     1     158.424 158.357 169.753  0.00  0.00    +0.000 C 
ATOM     11  C8  UNL     1     157.711 158.039 168.456  0.00  0.00    +0.000 C 
ATOM     12  C9  UNL     1     156.748 156.909 168.718  0.00  0.00    +0.000 C 
ATOM     13  C10 UNL     1     157.030 159.247 167.867  0.00  0.00    +0.000 C 
ATOM     14  C11 UNL     1     156.779 160.140 170.124  0.00  0.00    +0.000 C 
ENDBRANCH   3   5
BRANCH   2  15
ATOM     15  C12 UNL     1     153.703 161.861 166.609  0.00  0.00    +0.000 A 
ATOM     16  C13 UNL     1     152.477 162.303 167.055  0.00  0.00    +0.000 A 
ATOM     17  C14 UNL     1     152.049 163.378 166.311  0.00  0.00    +0.000 A 
ATOM     18  C15 UNL     1     150.909 164.173 166.351  0.00  0.00    +0.000 A 
ATOM     19  C16 UNL     1     150.752 165.209 165.453  0.00  0.00    +0.000 A 
ATOM     20  C17 UNL     1     151.742 165.429 164.533  0.00  0.00    +0.000 A 
ATOM     21  C18 UNL     1     152.879 164.634 164.497  0.00  0.00    +0.000 A 
ATOM     22  C19 UNL     1     153.059 163.593 165.382  0.00  0.00    +0.000 A 
ATOM     23  N2  UNL     1     154.025 162.673 165.589  0.00  0.00    +0.000 N 
ATOM     24  H22 UNL     1     154.902 162.621 165.014  0.00  0.00    +0.000 HD
ENDBRANCH   2  15
TORSDOF 2
ENDMDL
MODEL 8
REMARK VINA RESULT:      -5.6     10.812     11.971
REMARK  Name = ./3D_structures\o49_MMV1578577_3D.pdb
REMARK  2 active torsions:
REMARK  status: ('A' for Active; 'I' for Inactive)
REMARK    1  A    between atoms: C1_2  and  C12_14
REMARK    2  A    between atoms: N1_3  and  C2_4
REMARK                            x       y       z     vdW  Elec       q    Type
REMARK                         _______ _______ _______ _____ _____    ______ ____
ROOT
ATOM      1  O1  UNL     1     147.751 153.311 166.074  0.00  0.00    +0.000 OA
ATOM      2  C1  UNL     1     147.103 152.237 166.063  0.00  0.00    +0.000 C 
ATOM      3  N1  UNL     1     146.838 151.665 167.338  0.00  0.00    +0.000 N 
ATOM      4  H1  UNL     1     146.303 150.775 167.357  0.00  0.00    +0.000 HD
ENDROOT
BRANCH   3   5
ATOM      5  C2  UNL     1     147.274 152.266 168.576  0.00  0.00    +0.000 C 
ATOM      6  C3  UNL     1     146.734 151.395 169.691  0.00  0.00    +0.000 C 
ATOM      7  C4  UNL     1     147.086 151.884 171.058  0.00  0.00    +0.000 C 
ATOM      8  C5  UNL     1     146.494 153.276 171.206  0.00  0.00    +0.000 C 
ATOM      9  C6  UNL     1     147.101 154.138 170.144  0.00  0.00    +0.000 C 
ATOM     10  C7  UNL     1     148.597 154.186 170.323  0.00  0.00    +0.000 C 
ATOM     11  C8  UNL     1     149.123 152.787 170.084  0.00  0.00    +0.000 C 
ATOM     12  C9  UNL     1     148.594 151.897 171.178  0.00  0.00    +0.000 C 
ATOM     13  C10 UNL     1     148.777 152.273 168.710  0.00  0.00    +0.000 C 
ATOM     14  C11 UNL     1     146.790 153.689 168.739  0.00  0.00    +0.000 C 
ENDBRANCH   3   5
BRANCH   2  15
ATOM     15  C12 UNL     1     146.648 151.606 164.819  0.00  0.00    +0.000 A 
ATOM     16  C13 UNL     1     145.413 151.062 164.542  0.00  0.00    +0.000 A 
ATOM     17  C14 UNL     1     145.379 150.568 163.259  0.00  0.00    +0.000 A 
ATOM     18  C15 UNL     1     144.397 149.935 162.506  0.00  0.00    +0.000 A 
ATOM     19  C16 UNL     1     144.659 149.541 161.210  0.00  0.00    +0.000 A 
ATOM     20  C17 UNL     1     145.902 149.791 160.692  0.00  0.00    +0.000 A 
ATOM     21  C18 UNL     1     146.880 150.423 161.447  0.00  0.00    +0.000 A 
ATOM     22  C19 UNL     1     146.643 150.825 162.744  0.00  0.00    +0.000 A 
ATOM     23  N2  UNL     1     147.370 151.443 163.699  0.00  0.00    +0.000 N 
ATOM     24  H22 UNL     1     148.365 151.746 163.558  0.00  0.00    +0.000 HD
ENDBRANCH   2  15
TORSDOF 2
ENDMDL
MODEL 9
REMARK VINA RESULT:      -5.5      8.378     11.028
REMARK  Name = ./3D_structures\o49_MMV1578577_3D.pdb
REMARK  2 active torsions:
REMARK  status: ('A' for Active; 'I' for Inactive)
REMARK    1  A    between atoms: C1_2  and  C12_14
REMARK    2  A    between atoms: N1_3  and  C2_4
REMARK                            x       y       z     vdW  Elec       q    Type
REMARK                         _______ _______ _______ _____ _____    ______ ____
ROOT
ATOM      1  O1  UNL     1     147.613 160.762 168.662  0.00  0.00    +0.000 OA
ATOM      2  C1  UNL     1     148.707 161.275 168.326  0.00  0.00    +0.000 C 
ATOM      3  N1  UNL     1     148.624 162.555 167.712  0.00  0.00    +0.000 N 
ATOM      4  H1  UNL     1     149.516 163.002 167.424  0.00  0.00    +0.000 HD
ENDROOT
BRANCH   3   5
ATOM      5  C2  UNL     1     147.373 163.238 167.483  0.00  0.00    +0.000 C 
ATOM      6  C3  UNL     1     147.660 164.340 166.484  0.00  0.00    +0.000 C 
ATOM      7  C4  UNL     1     146.463 165.163 166.138  0.00  0.00    +0.000 C 
ATOM      8  C5  UNL     1     145.967 165.801 167.426  0.00  0.00    +0.000 C 
ATOM      9  C6  UNL     1     145.615 164.693 168.369  0.00  0.00    +0.000 C 
ATOM     10  C7  UNL     1     144.535 163.834 167.762  0.00  0.00    +0.000 C 
ATOM     11  C8  UNL     1     145.124 163.173 166.535  0.00  0.00    +0.000 C 
ATOM     12  C9  UNL     1     145.425 164.250 165.525  0.00  0.00    +0.000 C 
ATOM     13  C10 UNL     1     146.335 162.337 166.861  0.00  0.00    +0.000 C 
ATOM     14  C11 UNL     1     146.782 163.818 168.748  0.00  0.00    +0.000 C 
ENDBRANCH   3   5
BRANCH   2  15
ATOM     15  C12 UNL     1     149.991 160.602 168.548  0.00  0.00    +0.000 A 
ATOM     16  C13 UNL     1     150.267 159.549 169.393  0.00  0.00    +0.000 A 
ATOM     17  C14 UNL     1     151.596 159.202 169.316  0.00  0.00    +0.000 A 
ATOM     18  C15 UNL     1     152.367 158.232 169.946  0.00  0.00    +0.000 A 
ATOM     19  C16 UNL     1     153.712 158.117 169.660  0.00  0.00    +0.000 A 
ATOM     20  C17 UNL     1     154.259 158.978 168.745  0.00  0.00    +0.000 A 
ATOM     21  C18 UNL     1     153.485 159.945 168.118  0.00  0.00    +0.000 A 
ATOM     22  C19 UNL     1     152.141 160.081 168.387  0.00  0.00    +0.000 A 
ATOM     23  N2  UNL     1     151.158 160.897 167.953  0.00  0.00    +0.000 N 
ATOM     24  H22 UNL     1     151.312 161.654 167.242  0.00  0.00    +0.000 HD
ENDBRANCH   2  15
TORSDOF 2
ENDMDL
