MODEL 1
REMARK VINA RESULT:      -6.4      0.000      0.000
REMARK  Name = ./3D_structures\o4_MMV1633674_3D.pdb
REMARK  12 active torsions:
REMARK  status: ('A' for Active; 'I' for Inactive)
REMARK    1  A    between atoms: C1_1  and  C2_2
REMARK    2  A    between atoms: C10_11  and  C11_12
REMARK    3  A    between atoms: C12_13  and  O3_23
REMARK    4  A    between atoms: C14_15  and  C15_16
REMARK    5  A    between atoms: C14_15  and  C16_17
REMARK    6  A    between atoms: C18_19  and  O2_20
REMARK    7  A    between atoms: C19_21  and  C20_22
REMARK    8  A    between atoms: O3_23  and  C21_24
REMARK    9  A    between atoms: C21_24  and  C22_26
REMARK   10  A    between atoms: C22_26  and  S1_27
REMARK   11  A    between atoms: S1_27  and  C23_28
REMARK   12  A    between atoms: N1_35  and  C30_36
REMARK                            x       y       z     vdW  Elec       q    Type
REMARK                         _______ _______ _______ _____ _____    ______ ____
ROOT
ATOM      1  C1  UNL     1     150.664 160.962 170.010  0.00  0.00    +0.000 C 
ATOM      2  C2  UNL     1     151.724 160.196 169.205  0.00  0.00    +0.000 C 
ATOM      3  C3  UNL     1     151.638 158.734 169.411  0.00  0.00    +0.000 C 
ATOM      4  C4  UNL     1     152.849 158.033 169.889  0.00  0.00    +0.000 C 
ATOM      5  C5  UNL     1     154.153 158.477 169.256  0.00  0.00    +0.000 C 
ATOM      6  C6  UNL     1     154.326 157.599 168.013  0.00  0.00    +0.000 C 
ATOM      7  C7  UNL     1     154.502 158.518 166.836  0.00  0.00    +0.000 C 
ATOM      8  C8  UNL     1     153.682 159.676 167.268  0.00  0.00    +0.000 C 
ATOM      9  O1  UNL     1     152.951 160.258 166.526  0.00  0.00    +0.000 OA
ATOM     10  C9  UNL     1     154.028 159.833 168.696  0.00  0.00    +0.000 C 
ATOM     11  C10 UNL     1     153.103 160.801 169.348  0.00  0.00    +0.000 C 
ATOM     12  C11 UNL     1     153.087 162.015 168.390  0.00  0.00    +0.000 C 
ATOM     13  C12 UNL     1     153.391 161.252 170.694  0.00  0.00    +0.000 C 
ATOM     14  C13 UNL     1     154.438 160.672 171.557  0.00  0.00    +0.000 C 
ATOM     15  C14 UNL     1     155.835 160.564 171.182  0.00  0.00    +0.000 C 
ATOM     16  C15 UNL     1     156.380 161.876 170.603  0.00  0.00    +0.000 C 
ATOM     17  C18 UNL     1     156.266 159.376 170.373  0.00  0.00    +0.000 C 
ATOM     18  C19 UNL     1     155.288 158.278 170.230  0.00  0.00    +0.000 C 
ATOM     19  C20 UNL     1     156.095 157.000 169.931  0.00  0.00    +0.000 C 
ENDROOT
BRANCH  15  20
ATOM     20  C16 UNL     1     156.614 160.462 172.494  0.00  0.00    +0.000 C 
ATOM     21  C17 UNL     1     156.611 161.397 173.405  0.00  0.00    +0.000 C 
ENDBRANCH  15  20
BRANCH  17  22
ATOM     22  O2  UNL     1     157.428 158.786 170.962  0.00  0.00    +0.000 OA
ATOM     23  H27 UNL     1     157.424 159.054 171.911  0.00  0.00    +0.000 HD
ENDBRANCH  17  22
BRANCH  13  24
ATOM     24  O3  UNL     1     153.568 162.662 170.724  0.00  0.00    +0.000 OA
BRANCH  24  25
ATOM     25  C21 UNL     1     153.327 163.476 171.809  0.00  0.00    +0.000 C 
ATOM     26  O4  UNL     1     154.279 164.164 172.254  0.00  0.00    +0.000 OA
BRANCH  25  27
ATOM     27  C22 UNL     1     151.960 163.542 172.447  0.00  0.00    +0.000 C 
BRANCH  27  28
ATOM     28  S1  UNL     1     151.076 164.906 171.698  0.00  0.00    +0.000 S 
BRANCH  28  29
ATOM     29  C23 UNL     1     150.243 164.447 170.175  0.00  0.00    +0.000 C 
ATOM     30  C24 UNL     1     151.059 164.992 169.020  0.00  0.00    +0.000 C 
ATOM     31  C25 UNL     1     150.317 165.000 167.724  0.00  0.00    +0.000 C 
ATOM     32  C26 UNL     1     149.816 163.616 167.371  0.00  0.00    +0.000 C 
ATOM     33  C27 UNL     1     148.515 163.539 168.130  0.00  0.00    +0.000 C 
ATOM     34  C28 UNL     1     148.297 164.927 168.708  0.00  0.00    +0.000 C 
ATOM     35  C29 UNL     1     148.863 165.043 170.107  0.00  0.00    +0.000 C 
ATOM     36  N1  UNL     1     149.105 165.783 167.854  0.00  0.00    +0.000 NA
ATOM     37  C30 UNL     1     148.483 166.007 166.569  0.00  0.00    +0.000 C 
ENDBRANCH  28  29
ENDBRANCH  27  28
ENDBRANCH  25  27
ENDBRANCH  24  25
ENDBRANCH  13  24
TORSDOF 7
ENDMDL
MODEL 2
REMARK VINA RESULT:      -6.4      2.125      4.540
REMARK  Name = ./3D_structures\o4_MMV1633674_3D.pdb
REMARK  12 active torsions:
REMARK  status: ('A' for Active; 'I' for Inactive)
REMARK    1  A    between atoms: C1_1  and  C2_2
REMARK    2  A    between atoms: C10_11  and  C11_12
REMARK    3  A    between atoms: C12_13  and  O3_23
REMARK    4  A    between atoms: C14_15  and  C15_16
REMARK    5  A    between atoms: C14_15  and  C16_17
REMARK    6  A    between atoms: C18_19  and  O2_20
REMARK    7  A    between atoms: C19_21  and  C20_22
REMARK    8  A    between atoms: O3_23  and  C21_24
REMARK    9  A    between atoms: C21_24  and  C22_26
REMARK   10  A    between atoms: C22_26  and  S1_27
REMARK   11  A    between atoms: S1_27  and  C23_28
REMARK   12  A    between atoms: N1_35  and  C30_36
REMARK                            x       y       z     vdW  Elec       q    Type
REMARK                         _______ _______ _______ _____ _____    ______ ____
ROOT
ATOM      1  C1  UNL     1     153.191 163.485 170.085  0.00  0.00    +0.000 C 
ATOM      2  C2  UNL     1     153.844 162.513 171.079  0.00  0.00    +0.000 C 
ATOM      3  C3  UNL     1     155.312 162.682 171.148  0.00  0.00    +0.000 C 
ATOM      4  C4  UNL     1     156.155 161.498 170.881  0.00  0.00    +0.000 C 
ATOM      5  C5  UNL     1     155.668 160.199 171.492  0.00  0.00    +0.000 C 
ATOM      6  C6  UNL     1     156.300 160.139 172.886  0.00  0.00    +0.000 C 
ATOM      7  C7  UNL     1     155.183 159.959 173.877  0.00  0.00    +0.000 C 
ATOM      8  C8  UNL     1     154.087 160.683 173.188  0.00  0.00    +0.000 C 
ATOM      9  O1  UNL     1     153.335 161.409 173.764  0.00  0.00    +0.000 OA
ATOM     10  C9  UNL     1     154.226 160.263 171.778  0.00  0.00    +0.000 C 
ATOM     11  C10 UNL     1     153.352 161.094 170.904  0.00  0.00    +0.000 C 
ATOM     12  C11 UNL     1     151.978 161.077 171.613  0.00  0.00    +0.000 C 
ATOM     13  C12 UNL     1     153.183 160.716 169.516  0.00  0.00    +0.000 C 
ATOM     14  C13 UNL     1     153.974 159.670 168.838  0.00  0.00    +0.000 C 
ATOM     15  C14 UNL     1     154.082 158.301 169.306  0.00  0.00    +0.000 C 
ATOM     16  C15 UNL     1     152.714 157.702 169.658  0.00  0.00    +0.000 C 
ATOM     17  C18 UNL     1     155.114 157.984 170.348  0.00  0.00    +0.000 C 
ATOM     18  C19 UNL     1     156.111 159.035 170.640  0.00  0.00    +0.000 C 
ATOM     19  C20 UNL     1     157.348 158.325 171.221  0.00  0.00    +0.000 C 
ENDROOT
BRANCH  15  20
ATOM     20  C16 UNL     1     154.475 157.470 168.084  0.00  0.00    +0.000 C 
ATOM     21  C17 UNL     1     154.611 157.974 166.888  0.00  0.00    +0.000 C 
ENDBRANCH  15  20
BRANCH  17  22
ATOM     22  O2  UNL     1     155.867 156.836 169.949  0.00  0.00    +0.000 OA
ATOM     23  H27 UNL     1     155.234 156.234 169.492  0.00  0.00    +0.000 HD
ENDBRANCH  17  22
BRANCH  13  24
ATOM     24  O3  UNL     1     151.818 160.449 169.230  0.00  0.00    +0.000 OA
BRANCH  24  25
ATOM     25  C21 UNL     1     151.062 161.082 168.267  0.00  0.00    +0.000 C 
ATOM     26  O4  UNL     1     151.495 161.089 167.088  0.00  0.00    +0.000 OA
BRANCH  25  27
ATOM     27  C22 UNL     1     149.753 161.748 168.615  0.00  0.00    +0.000 C 
BRANCH  27  28
ATOM     28  S1  UNL     1     149.641 163.258 167.660  0.00  0.00    +0.000 S 
BRANCH  28  29
ATOM     29  C23 UNL     1     147.967 163.902 167.563  0.00  0.00    +0.000 C 
ATOM     30  C24 UNL     1     147.032 162.726 167.363  0.00  0.00    +0.000 C 
ATOM     31  C25 UNL     1     145.667 163.128 166.913  0.00  0.00    +0.000 C 
ATOM     32  C26 UNL     1     145.037 164.107 167.880  0.00  0.00    +0.000 C 
ATOM     33  C27 UNL     1     145.593 165.428 167.413  0.00  0.00    +0.000 C 
ATOM     34  C28 UNL     1     146.348 165.122 166.130  0.00  0.00    +0.000 C 
ATOM     35  C29 UNL     1     147.811 164.840 166.397  0.00  0.00    +0.000 C 
ATOM     36  N1  UNL     1     145.754 163.875 165.674  0.00  0.00    +0.000 NA
ATOM     37  C30 UNL     1     144.449 164.079 165.089  0.00  0.00    +0.000 C 
ENDBRANCH  28  29
ENDBRANCH  27  28
ENDBRANCH  25  27
ENDBRANCH  24  25
ENDBRANCH  13  24
TORSDOF 7
ENDMDL
MODEL 3
REMARK VINA RESULT:      -6.4      2.508      4.387
REMARK  Name = ./3D_structures\o4_MMV1633674_3D.pdb
REMARK  12 active torsions:
REMARK  status: ('A' for Active; 'I' for Inactive)
REMARK    1  A    between atoms: C1_1  and  C2_2
REMARK    2  A    between atoms: C10_11  and  C11_12
REMARK    3  A    between atoms: C12_13  and  O3_23
REMARK    4  A    between atoms: C14_15  and  C15_16
REMARK    5  A    between atoms: C14_15  and  C16_17
REMARK    6  A    between atoms: C18_19  and  O2_20
REMARK    7  A    between atoms: C19_21  and  C20_22
REMARK    8  A    between atoms: O3_23  and  C21_24
REMARK    9  A    between atoms: C21_24  and  C22_26
REMARK   10  A    between atoms: C22_26  and  S1_27
REMARK   11  A    between atoms: S1_27  and  C23_28
REMARK   12  A    between atoms: N1_35  and  C30_36
REMARK                            x       y       z     vdW  Elec       q    Type
REMARK                         _______ _______ _______ _____ _____    ______ ____
ROOT
ATOM      1  C1  UNL     1     151.470 163.023 170.626  0.00  0.00    +0.000 C 
ATOM      2  C2  UNL     1     151.664 161.514 170.420  0.00  0.00    +0.000 C 
ATOM      3  C3  UNL     1     152.866 161.003 171.115  0.00  0.00    +0.000 C 
ATOM      4  C4  UNL     1     153.880 160.292 170.305  0.00  0.00    +0.000 C 
ATOM      5  C5  UNL     1     153.330 159.335 169.266  0.00  0.00    +0.000 C 
ATOM      6  C6  UNL     1     153.186 157.989 169.984  0.00  0.00    +0.000 C 
ATOM      7  C7  UNL     1     151.760 157.543 169.818  0.00  0.00    +0.000 C 
ATOM      8  C8  UNL     1     151.067 158.853 169.774  0.00  0.00    +0.000 C 
ATOM      9  O1  UNL     1     150.040 159.056 170.346  0.00  0.00    +0.000 OA
ATOM     10  C9  UNL     1     151.942 159.680 168.918  0.00  0.00    +0.000 C 
ATOM     11  C10 UNL     1     151.518 161.107 168.971  0.00  0.00    +0.000 C 
ATOM     12  C11 UNL     1     149.989 161.057 168.742  0.00  0.00    +0.000 C 
ATOM     13  C12 UNL     1     152.113 162.053 168.050  0.00  0.00    +0.000 C 
ATOM     14  C13 UNL     1     153.266 161.750 167.180  0.00  0.00    +0.000 C 
ATOM     15  C14 UNL     1     153.308 160.647 166.238  0.00  0.00    +0.000 C 
ATOM     16  C15 UNL     1     152.039 160.575 165.378  0.00  0.00    +0.000 C 
ATOM     17  C18 UNL     1     153.717 159.295 166.743  0.00  0.00    +0.000 C 
ATOM     18  C19 UNL     1     154.287 159.237 168.105  0.00  0.00    +0.000 C 
ATOM     19  C20 UNL     1     155.154 157.965 168.169  0.00  0.00    +0.000 C 
ENDROOT
BRANCH  15  20
ATOM     20  C16 UNL     1     154.362 161.025 165.197  0.00  0.00    +0.000 C 
ATOM     21  C17 UNL     1     154.636 162.258 164.868  0.00  0.00    +0.000 C 
ENDBRANCH  15  20
BRANCH  17  22
ATOM     22  O2  UNL     1     154.713 158.739 165.881  0.00  0.00    +0.000 OA
ATOM     23  H27 UNL     1     155.123 157.992 166.376  0.00  0.00    +0.000 HD
ENDBRANCH  17  22
BRANCH  13  24
ATOM     24  O3  UNL     1     151.119 162.644 167.224  0.00  0.00    +0.000 OA
BRANCH  24  25
ATOM     25  C21 UNL     1     151.103 163.956 166.805  0.00  0.00    +0.000 C 
ATOM     26  O4  UNL     1     151.132 164.180 165.569  0.00  0.00    +0.000 OA
BRANCH  25  27
ATOM     27  C22 UNL     1     151.053 165.092 167.797  0.00  0.00    +0.000 C 
BRANCH  27  28
ATOM     28  S1  UNL     1     149.657 166.127 167.367  0.00  0.00    +0.000 S 
BRANCH  28  29
ATOM     29  C23 UNL     1     148.078 165.380 167.785  0.00  0.00    +0.000 C 
ATOM     30  C24 UNL     1     148.307 164.440 168.951  0.00  0.00    +0.000 C 
ATOM     31  C25 UNL     1     147.176 163.492 169.176  0.00  0.00    +0.000 C 
ATOM     32  C26 UNL     1     145.872 164.233 169.381  0.00  0.00    +0.000 C 
ATOM     33  C27 UNL     1     145.408 164.470 167.967  0.00  0.00    +0.000 C 
ATOM     34  C28 UNL     1     146.382 163.707 167.084  0.00  0.00    +0.000 C 
ATOM     35  C29 UNL     1     147.529 164.585 166.631  0.00  0.00    +0.000 C 
ATOM     36  N1  UNL     1     146.943 162.708 167.980  0.00  0.00    +0.000 NA
ATOM     37  C30 UNL     1     146.019 161.627 168.231  0.00  0.00    +0.000 C 
ENDBRANCH  28  29
ENDBRANCH  27  28
ENDBRANCH  25  27
ENDBRANCH  24  25
ENDBRANCH  13  24
TORSDOF 7
ENDMDL
MODEL 4
REMARK VINA RESULT:      -6.3      2.134      4.604
REMARK  Name = ./3D_structures\o4_MMV1633674_3D.pdb
REMARK  12 active torsions:
REMARK  status: ('A' for Active; 'I' for Inactive)
REMARK    1  A    between atoms: C1_1  and  C2_2
REMARK    2  A    between atoms: C10_11  and  C11_12
REMARK    3  A    between atoms: C12_13  and  O3_23
REMARK    4  A    between atoms: C14_15  and  C15_16
REMARK    5  A    between atoms: C14_15  and  C16_17
REMARK    6  A    between atoms: C18_19  and  O2_20
REMARK    7  A    between atoms: C19_21  and  C20_22
REMARK    8  A    between atoms: O3_23  and  C21_24
REMARK    9  A    between atoms: C21_24  and  C22_26
REMARK   10  A    between atoms: C22_26  and  S1_27
REMARK   11  A    between atoms: S1_27  and  C23_28
REMARK   12  A    between atoms: N1_35  and  C30_36
REMARK                            x       y       z     vdW  Elec       q    Type
REMARK                         _______ _______ _______ _____ _____    ______ ____
ROOT
ATOM      1  C1  UNL     1     156.197 161.701 172.160  0.00  0.00    +0.000 C 
ATOM      2  C2  UNL     1     157.047 160.842 171.212  0.00  0.00    +0.000 C 
ATOM      3  C3  UNL     1     157.954 161.658 170.376  0.00  0.00    +0.000 C 
ATOM      4  C4  UNL     1     157.858 161.510 168.908  0.00  0.00    +0.000 C 
ATOM      5  C5  UNL     1     157.687 160.090 168.405  0.00  0.00    +0.000 C 
ATOM      6  C6  UNL     1     159.107 159.551 168.209  0.00  0.00    +0.000 C 
ATOM      7  C7  UNL     1     159.219 158.281 169.006  0.00  0.00    +0.000 C 
ATOM      8  C8  UNL     1     158.293 158.578 170.126  0.00  0.00    +0.000 C 
ATOM      9  O1  UNL     1     158.546 158.305 171.259  0.00  0.00    +0.000 OA
ATOM     10  C9  UNL     1     157.140 159.222 169.461  0.00  0.00    +0.000 C 
ATOM     11  C10 UNL     1     156.222 159.810 170.476  0.00  0.00    +0.000 C 
ATOM     12  C11 UNL     1     156.020 158.677 171.508  0.00  0.00    +0.000 C 
ATOM     13  C12 UNL     1     154.931 160.310 170.050  0.00  0.00    +0.000 C 
ATOM     14  C13 UNL     1     154.525 160.464 168.639  0.00  0.00    +0.000 C 
ATOM     15  C14 UNL     1     154.547 159.390 167.664  0.00  0.00    +0.000 C 
ATOM     16  C15 UNL     1     153.897 158.108 168.203  0.00  0.00    +0.000 C 
ATOM     17  C18 UNL     1     155.835 159.104 166.949  0.00  0.00    +0.000 C 
ATOM     18  C19 UNL     1     156.919 160.096 167.107  0.00  0.00    +0.000 C 
ATOM     19  C20 UNL     1     157.842 159.944 165.883  0.00  0.00    +0.000 C 
ENDROOT
BRANCH  15  20
ATOM     20  C16 UNL     1     153.560 159.797 166.570  0.00  0.00    +0.000 C 
ATOM     21  C17 UNL     1     153.043 160.991 166.479  0.00  0.00    +0.000 C 
ENDBRANCH  15  20
BRANCH  17  22
ATOM     22  O2  UNL     1     155.596 159.011 165.542  0.00  0.00    +0.000 OA
ATOM     23  H27 UNL     1     156.289 158.411 165.182  0.00  0.00    +0.000 HD
ENDBRANCH  17  22
BRANCH  13  24
ATOM     24  O3  UNL     1     153.881 159.614 170.706  0.00  0.00    +0.000 OA
BRANCH  24  25
ATOM     25  C21 UNL     1     152.720 160.181 171.184  0.00  0.00    +0.000 C 
ATOM     26  O4  UNL     1     152.805 161.281 171.785  0.00  0.00    +0.000 OA
BRANCH  25  27
ATOM     27  C22 UNL     1     151.384 159.505 170.992  0.00  0.00    +0.000 C 
BRANCH  27  28
ATOM     28  S1  UNL     1     150.803 159.906 169.347  0.00  0.00    +0.000 S 
BRANCH  28  29
ATOM     29  C23 UNL     1     149.942 161.481 169.275  0.00  0.00    +0.000 C 
ATOM     30  C24 UNL     1     148.953 161.414 168.129  0.00  0.00    +0.000 C 
ATOM     31  C25 UNL     1     148.427 162.751 167.724  0.00  0.00    +0.000 C 
ATOM     32  C26 UNL     1     147.785 163.464 168.895  0.00  0.00    +0.000 C 
ATOM     33  C27 UNL     1     148.967 164.119 169.564  0.00  0.00    +0.000 C 
ATOM     34  C28 UNL     1     150.147 163.872 168.638  0.00  0.00    +0.000 C 
ATOM     35  C29 UNL     1     150.899 162.613 169.015  0.00  0.00    +0.000 C 
ATOM     36  N1  UNL     1     149.523 163.621 167.349  0.00  0.00    +0.000 NA
ATOM     37  C30 UNL     1     149.043 164.837 166.735  0.00  0.00    +0.000 C 
ENDBRANCH  28  29
ENDBRANCH  27  28
ENDBRANCH  25  27
ENDBRANCH  24  25
ENDBRANCH  13  24
TORSDOF 7
ENDMDL
MODEL 5
REMARK VINA RESULT:      -6.3      2.899      5.080
REMARK  Name = ./3D_structures\o4_MMV1633674_3D.pdb
REMARK  12 active torsions:
REMARK  status: ('A' for Active; 'I' for Inactive)
REMARK    1  A    between atoms: C1_1  and  C2_2
REMARK    2  A    between atoms: C10_11  and  C11_12
REMARK    3  A    between atoms: C12_13  and  O3_23
REMARK    4  A    between atoms: C14_15  and  C15_16
REMARK    5  A    between atoms: C14_15  and  C16_17
REMARK    6  A    between atoms: C18_19  and  O2_20
REMARK    7  A    between atoms: C19_21  and  C20_22
REMARK    8  A    between atoms: O3_23  and  C21_24
REMARK    9  A    between atoms: C21_24  and  C22_26
REMARK   10  A    between atoms: C22_26  and  S1_27
REMARK   11  A    between atoms: S1_27  and  C23_28
REMARK   12  A    between atoms: N1_35  and  C30_36
REMARK                            x       y       z     vdW  Elec       q    Type
REMARK                         _______ _______ _______ _____ _____    ______ ____
ROOT
ATOM      1  C1  UNL     1     151.623 160.651 167.905  0.00  0.00    +0.000 C 
ATOM      2  C2  UNL     1     151.711 160.575 169.436  0.00  0.00    +0.000 C 
ATOM      3  C3  UNL     1     151.826 161.911 170.059  0.00  0.00    +0.000 C 
ATOM      4  C4  UNL     1     152.985 162.163 170.943  0.00  0.00    +0.000 C 
ATOM      5  C5  UNL     1     153.349 161.027 171.879  0.00  0.00    +0.000 C 
ATOM      6  C6  UNL     1     152.528 161.264 173.150  0.00  0.00    +0.000 C 
ATOM      7  C7  UNL     1     151.740 160.010 173.414  0.00  0.00    +0.000 C 
ATOM      8  C8  UNL     1     151.522 159.527 172.029  0.00  0.00    +0.000 C 
ATOM      9  O1  UNL     1     150.478 159.084 171.660  0.00  0.00    +0.000 OA
ATOM     10  C9  UNL     1     152.830 159.746 171.375  0.00  0.00    +0.000 C 
ATOM     11  C10 UNL     1     152.711 159.542 169.905  0.00  0.00    +0.000 C 
ATOM     12  C11 UNL     1     151.962 158.196 169.766  0.00  0.00    +0.000 C 
ATOM     13  C12 UNL     1     153.916 159.508 169.101  0.00  0.00    +0.000 C 
ATOM     14  C13 UNL     1     155.259 159.860 169.602  0.00  0.00    +0.000 C 
ATOM     15  C14 UNL     1     155.885 159.239 170.754  0.00  0.00    +0.000 C 
ATOM     16  C15 UNL     1     155.787 157.709 170.709  0.00  0.00    +0.000 C 
ATOM     17  C18 UNL     1     155.564 159.779 172.117  0.00  0.00    +0.000 C 
ATOM     18  C19 UNL     1     154.829 161.060 172.169  0.00  0.00    +0.000 C 
ATOM     19  C20 UNL     1     155.141 161.695 173.538  0.00  0.00    +0.000 C 
ENDROOT
BRANCH  15  20
ATOM     20  C16 UNL     1     157.389 159.455 170.579  0.00  0.00    +0.000 C 
ATOM     21  C17 UNL     1     158.201 158.529 170.147  0.00  0.00    +0.000 C 
ENDBRANCH  15  20
BRANCH  17  22
ATOM     22  O2  UNL     1     156.774 159.996 172.848  0.00  0.00    +0.000 OA
ATOM     23  H27 UNL     1     157.222 159.120 172.907  0.00  0.00    +0.000 HD
ENDBRANCH  17  22
BRANCH  13  24
ATOM     24  O3  UNL     1     154.040 158.260 168.434  0.00  0.00    +0.000 OA
BRANCH  24  25
ATOM     25  C21 UNL     1     154.577 158.073 167.178  0.00  0.00    +0.000 C 
ATOM     26  O4  UNL     1     155.476 157.206 167.044  0.00  0.00    +0.000 OA
BRANCH  25  27
ATOM     27  C22 UNL     1     154.100 158.883 165.997  0.00  0.00    +0.000 C 
BRANCH  27  28
ATOM     28  S1  UNL     1     155.232 160.254 165.785  0.00  0.00    +0.000 S 
BRANCH  28  29
ATOM     29  C23 UNL     1     154.441 161.714 165.101  0.00  0.00    +0.000 C 
ATOM     30  C24 UNL     1     154.430 162.780 166.178  0.00  0.00    +0.000 C 
ATOM     31  C25 UNL     1     153.501 163.910 165.881  0.00  0.00    +0.000 C 
ATOM     32  C26 UNL     1     153.825 164.550 164.548  0.00  0.00    +0.000 C 
ATOM     33  C27 UNL     1     153.083 163.668 163.575  0.00  0.00    +0.000 C 
ATOM     34  C28 UNL     1     152.268 162.713 164.431  0.00  0.00    +0.000 C 
ATOM     35  C29 UNL     1     153.019 161.426 164.700  0.00  0.00    +0.000 C 
ATOM     36  N1  UNL     1     152.153 163.407 165.704  0.00  0.00    +0.000 NA
ATOM     37  C30 UNL     1     151.193 164.485 165.646  0.00  0.00    +0.000 C 
ENDBRANCH  28  29
ENDBRANCH  27  28
ENDBRANCH  25  27
ENDBRANCH  24  25
ENDBRANCH  13  24
TORSDOF 7
ENDMDL
MODEL 6
REMARK VINA RESULT:      -6.3      3.284      5.683
REMARK  Name = ./3D_structures\o4_MMV1633674_3D.pdb
REMARK  12 active torsions:
REMARK  status: ('A' for Active; 'I' for Inactive)
REMARK    1  A    between atoms: C1_1  and  C2_2
REMARK    2  A    between atoms: C10_11  and  C11_12
REMARK    3  A    between atoms: C12_13  and  O3_23
REMARK    4  A    between atoms: C14_15  and  C15_16
REMARK    5  A    between atoms: C14_15  and  C16_17
REMARK    6  A    between atoms: C18_19  and  O2_20
REMARK    7  A    between atoms: C19_21  and  C20_22
REMARK    8  A    between atoms: O3_23  and  C21_24
REMARK    9  A    between atoms: C21_24  and  C22_26
REMARK   10  A    between atoms: C22_26  and  S1_27
REMARK   11  A    between atoms: S1_27  and  C23_28
REMARK   12  A    between atoms: N1_35  and  C30_36
REMARK                            x       y       z     vdW  Elec       q    Type
REMARK                         _______ _______ _______ _____ _____    ______ ____
ROOT
ATOM      1  C1  UNL     1     158.944 158.396 166.039  0.00  0.00    +0.000 C 
ATOM      2  C2  UNL     1     158.221 158.180 167.377  0.00  0.00    +0.000 C 
ATOM      3  C3  UNL     1     157.506 156.887 167.426  0.00  0.00    +0.000 C 
ATOM      4  C4  UNL     1     156.057 156.912 167.721  0.00  0.00    +0.000 C 
ATOM      5  C5  UNL     1     155.629 157.880 168.806  0.00  0.00    +0.000 C 
ATOM      6  C6  UNL     1     155.724 157.095 170.118  0.00  0.00    +0.000 C 
ATOM      7  C7  UNL     1     156.612 157.877 171.045  0.00  0.00    +0.000 C 
ATOM      8  C8  UNL     1     157.528 158.519 170.071  0.00  0.00    +0.000 C 
ATOM      9  O1  UNL     1     158.704 158.602 170.253  0.00  0.00    +0.000 OA
ATOM     10  C9  UNL     1     156.628 158.947 168.980  0.00  0.00    +0.000 C 
ATOM     11  C10 UNL     1     157.422 159.392 167.801  0.00  0.00    +0.000 C 
ATOM     12  C11 UNL     1     158.477 160.355 168.394  0.00  0.00    +0.000 C 
ATOM     13  C12 UNL     1     156.742 160.041 166.699  0.00  0.00    +0.000 C 
ATOM     14  C13 UNL     1     155.275 160.124 166.563  0.00  0.00    +0.000 C 
ATOM     15  C14 UNL     1     154.394 160.681 167.572  0.00  0.00    +0.000 C 
ATOM     16  C15 UNL     1     154.894 162.036 168.089  0.00  0.00    +0.000 C 
ATOM     17  C18 UNL     1     153.938 159.790 168.690  0.00  0.00    +0.000 C 
ATOM     18  C19 UNL     1     154.218 158.347 168.547  0.00  0.00    +0.000 C 
ATOM     19  C20 UNL     1     153.189 157.606 169.424  0.00  0.00    +0.000 C 
ENDROOT
BRANCH  15  20
ATOM     20  C16 UNL     1     153.117 161.087 166.835  0.00  0.00    +0.000 C 
ATOM     21  C17 UNL     1     152.845 160.717 165.614  0.00  0.00    +0.000 C 
ENDBRANCH  15  20
BRANCH  17  22
ATOM     22  O2  UNL     1     152.521 159.898 168.846  0.00  0.00    +0.000 OA
ATOM     23  H27 UNL     1     152.328 160.856 168.972  0.00  0.00    +0.000 HD
ENDBRANCH  17  22
BRANCH  13  24
ATOM     24  O3  UNL     1     157.248 161.354 166.500  0.00  0.00    +0.000 OA
BRANCH  24  25
ATOM     25  C21 UNL     1     157.293 162.020 165.294  0.00  0.00    +0.000 C 
ATOM     26  O4  UNL     1     157.824 161.435 164.317  0.00  0.00    +0.000 OA
BRANCH  25  27
ATOM     27  C22 UNL     1     156.723 163.410 165.148  0.00  0.00    +0.000 C 
BRANCH  27  28
ATOM     28  S1  UNL     1     155.330 163.311 164.029  0.00  0.00    +0.000 S 
BRANCH  28  29
ATOM     29  C23 UNL     1     153.994 164.425 164.476  0.00  0.00    +0.000 C 
ATOM     30  C24 UNL     1     153.978 164.544 165.987  0.00  0.00    +0.000 C 
ATOM     31  C25 UNL     1     152.719 165.142 166.519  0.00  0.00    +0.000 C 
ATOM     32  C26 UNL     1     152.458 166.503 165.909  0.00  0.00    +0.000 C 
ATOM     33  C27 UNL     1     151.761 166.152 164.619  0.00  0.00    +0.000 C 
ATOM     34  C28 UNL     1     151.529 164.651 164.676  0.00  0.00    +0.000 C 
ATOM     35  C29 UNL     1     152.662 163.887 164.026  0.00  0.00    +0.000 C 
ATOM     36  N1  UNL     1     151.579 164.351 166.098  0.00  0.00    +0.000 NA
ATOM     37  C30 UNL     1     150.374 164.761 166.780  0.00  0.00    +0.000 C 
ENDBRANCH  28  29
ENDBRANCH  27  28
ENDBRANCH  25  27
ENDBRANCH  24  25
ENDBRANCH  13  24
TORSDOF 7
ENDMDL
MODEL 7
REMARK VINA RESULT:      -6.3      4.166      7.237
REMARK  Name = ./3D_structures\o4_MMV1633674_3D.pdb
REMARK  12 active torsions:
REMARK  status: ('A' for Active; 'I' for Inactive)
REMARK    1  A    between atoms: C1_1  and  C2_2
REMARK    2  A    between atoms: C10_11  and  C11_12
REMARK    3  A    between atoms: C12_13  and  O3_23
REMARK    4  A    between atoms: C14_15  and  C15_16
REMARK    5  A    between atoms: C14_15  and  C16_17
REMARK    6  A    between atoms: C18_19  and  O2_20
REMARK    7  A    between atoms: C19_21  and  C20_22
REMARK    8  A    between atoms: O3_23  and  C21_24
REMARK    9  A    between atoms: C21_24  and  C22_26
REMARK   10  A    between atoms: C22_26  and  S1_27
REMARK   11  A    between atoms: S1_27  and  C23_28
REMARK   12  A    between atoms: N1_35  and  C30_36
REMARK                            x       y       z     vdW  Elec       q    Type
REMARK                         _______ _______ _______ _____ _____    ______ ____
ROOT
ATOM      1  C1  UNL     1     155.533 160.545 172.184  0.00  0.00    +0.000 C 
ATOM      2  C2  UNL     1     156.644 160.169 171.193  0.00  0.00    +0.000 C 
ATOM      3  C3  UNL     1     157.445 161.340 170.776  0.00  0.00    +0.000 C 
ATOM      4  C4  UNL     1     157.544 161.627 169.328  0.00  0.00    +0.000 C 
ATOM      5  C5  UNL     1     157.734 160.417 168.435  0.00  0.00    +0.000 C 
ATOM      6  C6  UNL     1     159.249 160.212 168.339  0.00  0.00    +0.000 C 
ATOM      7  C7  UNL     1     159.538 158.799 168.766  0.00  0.00    +0.000 C 
ATOM      8  C8  UNL     1     158.452 158.584 169.753  0.00  0.00    +0.000 C 
ATOM      9  O1  UNL     1     158.631 158.029 170.794  0.00  0.00    +0.000 OA
ATOM     10  C9  UNL     1     157.271 159.192 169.107  0.00  0.00    +0.000 C 
ATOM     11  C10 UNL     1     156.143 159.282 170.075  0.00  0.00    +0.000 C 
ATOM     12  C11 UNL     1     156.073 157.873 170.709  0.00  0.00    +0.000 C 
ATOM     13  C12 UNL     1     154.830 159.660 169.593  0.00  0.00    +0.000 C 
ATOM     14  C13 UNL     1     154.559 160.159 168.231  0.00  0.00    +0.000 C 
ATOM     15  C14 UNL     1     154.915 159.449 167.017  0.00  0.00    +0.000 C 
ATOM     16  C15 UNL     1     154.496 157.974 167.068  0.00  0.00    +0.000 C 
ATOM     17  C18 UNL     1     156.305 159.615 166.477  0.00  0.00    +0.000 C 
ATOM     18  C19 UNL     1     157.130 160.683 167.079  0.00  0.00    +0.000 C 
ATOM     19  C20 UNL     1     158.194 161.066 166.032  0.00  0.00    +0.000 C 
ENDROOT
BRANCH  15  20
ATOM     20  C16 UNL     1     153.991 159.993 165.927  0.00  0.00    +0.000 C 
ATOM     21  C17 UNL     1     152.847 160.567 166.178  0.00  0.00    +0.000 C 
ENDBRANCH  15  20
BRANCH  17  22
ATOM     22  O2  UNL     1     156.248 159.911 165.079  0.00  0.00    +0.000 OA
ATOM     23  H27 UNL     1     155.884 159.107 164.641  0.00  0.00    +0.000 HD
ENDBRANCH  17  22
BRANCH  13  24
ATOM     24  O3  UNL     1     153.885 158.630 169.849  0.00  0.00    +0.000 OA
BRANCH  24  25
ATOM     25  C21 UNL     1     152.585 158.821 170.262  0.00  0.00    +0.000 C 
ATOM     26  O4  UNL     1     152.331 159.832 170.963  0.00  0.00    +0.000 OA
BRANCH  25  27
ATOM     27  C22 UNL     1     151.495 157.847 169.885  0.00  0.00    +0.000 C 
BRANCH  27  28
ATOM     28  S1  UNL     1     150.215 157.955 171.132  0.00  0.00    +0.000 S 
BRANCH  28  29
ATOM     29  C23 UNL     1     149.538 156.352 171.580  0.00  0.00    +0.000 C 
ATOM     30  C24 UNL     1     150.642 155.326 171.425  0.00  0.00    +0.000 C 
ATOM     31  C25 UNL     1     150.143 153.919 171.415  0.00  0.00    +0.000 C 
ATOM     32  C26 UNL     1     149.348 153.611 172.666  0.00  0.00    +0.000 C 
ATOM     33  C27 UNL     1     147.973 154.114 172.308  0.00  0.00    +0.000 C 
ATOM     34  C28 UNL     1     148.051 154.506 170.841  0.00  0.00    +0.000 C 
ATOM     35  C29 UNL     1     148.400 155.969 170.673  0.00  0.00    +0.000 C 
ATOM     36  N1  UNL     1     149.184 153.742 170.344  0.00  0.00    +0.000 NA
ATOM     37  C30 UNL     1     148.855 152.348 170.156  0.00  0.00    +0.000 C 
ENDBRANCH  28  29
ENDBRANCH  27  28
ENDBRANCH  25  27
ENDBRANCH  24  25
ENDBRANCH  13  24
TORSDOF 7
ENDMDL
MODEL 8
REMARK VINA RESULT:      -6.2      2.558      4.918
REMARK  Name = ./3D_structures\o4_MMV1633674_3D.pdb
REMARK  12 active torsions:
REMARK  status: ('A' for Active; 'I' for Inactive)
REMARK    1  A    between atoms: C1_1  and  C2_2
REMARK    2  A    between atoms: C10_11  and  C11_12
REMARK    3  A    between atoms: C12_13  and  O3_23
REMARK    4  A    between atoms: C14_15  and  C15_16
REMARK    5  A    between atoms: C14_15  and  C16_17
REMARK    6  A    between atoms: C18_19  and  O2_20
REMARK    7  A    between atoms: C19_21  and  C20_22
REMARK    8  A    between atoms: O3_23  and  C21_24
REMARK    9  A    between atoms: C21_24  and  C22_26
REMARK   10  A    between atoms: C22_26  and  S1_27
REMARK   11  A    between atoms: S1_27  and  C23_28
REMARK   12  A    between atoms: N1_35  and  C30_36
REMARK                            x       y       z     vdW  Elec       q    Type
REMARK                         _______ _______ _______ _____ _____    ______ ____
ROOT
ATOM      1  C1  UNL     1     155.889 161.783 171.712  0.00  0.00    +0.000 C 
ATOM      2  C2  UNL     1     156.861 160.886 170.932  0.00  0.00    +0.000 C 
ATOM      3  C3  UNL     1     157.987 161.651 170.351  0.00  0.00    +0.000 C 
ATOM      4  C4  UNL     1     158.204 161.555 168.891  0.00  0.00    +0.000 C 
ATOM      5  C5  UNL     1     158.045 160.169 168.297  0.00  0.00    +0.000 C 
ATOM      6  C6  UNL     1     159.431 159.523 168.388  0.00  0.00    +0.000 C 
ATOM      7  C7  UNL     1     159.273 158.225 169.130  0.00  0.00    +0.000 C 
ATOM      8  C8  UNL     1     158.147 158.563 170.036  0.00  0.00    +0.000 C 
ATOM      9  O1  UNL     1     158.125 158.236 171.183  0.00  0.00    +0.000 OA
ATOM     10  C9  UNL     1     157.219 159.318 169.168  0.00  0.00    +0.000 C 
ATOM     11  C10 UNL     1     156.146 159.948 169.987  0.00  0.00    +0.000 C 
ATOM     12  C11 UNL     1     155.641 158.804 170.897  0.00  0.00    +0.000 C 
ATOM     13  C12 UNL     1     155.019 160.563 169.315  0.00  0.00    +0.000 C 
ATOM     14  C13 UNL     1     154.944 160.791 167.859  0.00  0.00    +0.000 C 
ATOM     15  C14 UNL     1     155.102 159.748 166.863  0.00  0.00    +0.000 C 
ATOM     16  C15 UNL     1     154.259 158.508 167.187  0.00  0.00    +0.000 C 
ATOM     17  C18 UNL     1     156.491 159.381 166.431  0.00  0.00    +0.000 C 
ATOM     18  C19 UNL     1     157.583 160.277 166.865  0.00  0.00    +0.000 C 
ATOM     19  C20 UNL     1     158.739 160.087 165.864  0.00  0.00    +0.000 C 
ENDROOT
BRANCH  15  20
ATOM     20  C16 UNL     1     154.412 160.267 165.601  0.00  0.00    +0.000 C 
ATOM     21  C17 UNL     1     153.116 160.342 165.472  0.00  0.00    +0.000 C 
ENDBRANCH  15  20
BRANCH  17  22
ATOM     22  O2  UNL     1     156.561 159.350 165.003  0.00  0.00    +0.000 OA
ATOM     23  H27 UNL     1     155.645 159.172 164.685  0.00  0.00    +0.000 HD
ENDBRANCH  17  22
BRANCH  13  24
ATOM     24  O3  UNL     1     153.803 159.935 169.696  0.00  0.00    +0.000 OA
BRANCH  24  25
ATOM     25  C21 UNL     1     152.608 160.579 169.929  0.00  0.00    +0.000 C 
ATOM     26  O4  UNL     1     152.430 161.103 171.057  0.00  0.00    +0.000 OA
BRANCH  25  27
ATOM     27  C22 UNL     1     151.541 160.655 168.864  0.00  0.00    +0.000 C 
BRANCH  27  28
ATOM     28  S1  UNL     1     151.076 162.374 168.683  0.00  0.00    +0.000 S 
BRANCH  28  29
ATOM     29  C23 UNL     1     151.606 163.081 167.119  0.00  0.00    +0.000 C 
ATOM     30  C24 UNL     1     152.888 163.849 167.371  0.00  0.00    +0.000 C 
ATOM     31  C25 UNL     1     153.251 164.774 166.258  0.00  0.00    +0.000 C 
ATOM     32  C26 UNL     1     153.364 164.032 164.943  0.00  0.00    +0.000 C 
ATOM     33  C27 UNL     1     151.934 163.998 164.466  0.00  0.00    +0.000 C 
ATOM     34  C28 UNL     1     151.156 164.860 165.446  0.00  0.00    +0.000 C 
ATOM     35  C29 UNL     1     150.577 164.035 166.576  0.00  0.00    +0.000 C 
ATOM     36  N1  UNL     1     152.175 165.718 166.030  0.00  0.00    +0.000 NA
ATOM     37  C30 UNL     1     152.580 166.769 165.125  0.00  0.00    +0.000 C 
ENDBRANCH  28  29
ENDBRANCH  27  28
ENDBRANCH  25  27
ENDBRANCH  24  25
ENDBRANCH  13  24
TORSDOF 7
ENDMDL
MODEL 9
REMARK VINA RESULT:      -6.1      1.995      4.365
REMARK  Name = ./3D_structures\o4_MMV1633674_3D.pdb
REMARK  12 active torsions:
REMARK  status: ('A' for Active; 'I' for Inactive)
REMARK    1  A    between atoms: C1_1  and  C2_2
REMARK    2  A    between atoms: C10_11  and  C11_12
REMARK    3  A    between atoms: C12_13  and  O3_23
REMARK    4  A    between atoms: C14_15  and  C15_16
REMARK    5  A    between atoms: C14_15  and  C16_17
REMARK    6  A    between atoms: C18_19  and  O2_20
REMARK    7  A    between atoms: C19_21  and  C20_22
REMARK    8  A    between atoms: O3_23  and  C21_24
REMARK    9  A    between atoms: C21_24  and  C22_26
REMARK   10  A    between atoms: C22_26  and  S1_27
REMARK   11  A    between atoms: S1_27  and  C23_28
REMARK   12  A    between atoms: N1_35  and  C30_36
REMARK                            x       y       z     vdW  Elec       q    Type
REMARK                         _______ _______ _______ _____ _____    ______ ____
ROOT
ATOM      1  C1  UNL     1     155.972 163.544 170.708  0.00  0.00    +0.000 C 
ATOM      2  C2  UNL     1     156.234 162.054 170.973  0.00  0.00    +0.000 C 
ATOM      3  C3  UNL     1     157.578 161.632 170.521  0.00  0.00    +0.000 C 
ATOM      4  C4  UNL     1     157.662 160.511 169.559  0.00  0.00    +0.000 C 
ATOM      5  C5  UNL     1     156.722 159.352 169.826  0.00  0.00    +0.000 C 
ATOM      6  C6  UNL     1     157.491 158.407 170.754  0.00  0.00    +0.000 C 
ATOM      7  C7  UNL     1     156.640 158.184 171.973  0.00  0.00    +0.000 C 
ATOM      8  C8  UNL     1     155.935 159.487 172.056  0.00  0.00    +0.000 C 
ATOM      9  O1  UNL     1     155.762 160.058 173.089  0.00  0.00    +0.000 OA
ATOM     10  C9  UNL     1     155.582 159.780 170.652  0.00  0.00    +0.000 C 
ATOM     11  C10 UNL     1     155.085 161.179 170.527  0.00  0.00    +0.000 C 
ATOM     12  C11 UNL     1     154.041 161.314 171.660  0.00  0.00    +0.000 C 
ATOM     13  C12 UNL     1     154.495 161.606 169.274  0.00  0.00    +0.000 C 
ATOM     14  C13 UNL     1     154.524 160.813 168.030  0.00  0.00    +0.000 C 
ATOM     15  C14 UNL     1     154.030 159.453 167.920  0.00  0.00    +0.000 C 
ATOM     16  C15 UNL     1     152.638 159.293 168.545  0.00  0.00    +0.000 C 
ATOM     17  C18 UNL     1     154.947 158.329 168.303  0.00  0.00    +0.000 C 
ATOM     18  C19 UNL     1     156.366 158.674 168.526  0.00  0.00    +0.000 C 
ATOM     19  C20 UNL     1     157.177 157.383 168.300  0.00  0.00    +0.000 C 
ENDROOT
BRANCH  15  20
ATOM     20  C16 UNL     1     153.725 159.238 166.437  0.00  0.00    +0.000 C 
ATOM     21  C17 UNL     1     153.849 160.173 165.536  0.00  0.00    +0.000 C 
ENDBRANCH  15  20
BRANCH  17  22
ATOM     22  O2  UNL     1     154.946 157.334 167.276  0.00  0.00    +0.000 OA
ATOM     23  H27 UNL     1     154.051 156.922 167.289  0.00  0.00    +0.000 HD
ENDBRANCH  17  22
BRANCH  13  24
ATOM     24  O3  UNL     1     153.149 162.017 169.468  0.00  0.00    +0.000 OA
BRANCH  24  25
ATOM     25  C21 UNL     1     152.503 163.003 168.754  0.00  0.00    +0.000 C 
ATOM     26  O4  UNL     1     153.195 163.935 168.275  0.00  0.00    +0.000 OA
BRANCH  25  27
ATOM     27  C22 UNL     1     151.007 162.968 168.552  0.00  0.00    +0.000 C 
BRANCH  27  28
ATOM     28  S1  UNL     1     150.487 164.605 168.049  0.00  0.00    +0.000 S 
BRANCH  28  29
ATOM     29  C23 UNL     1     148.705 164.756 167.895  0.00  0.00    +0.000 C 
ATOM     30  C24 UNL     1     148.092 163.436 168.316  0.00  0.00    +0.000 C 
ATOM     31  C25 UNL     1     146.663 163.291 167.907  0.00  0.00    +0.000 C 
ATOM     32  C26 UNL     1     145.820 164.426 168.446  0.00  0.00    +0.000 C 
ATOM     33  C27 UNL     1     146.022 165.501 167.408  0.00  0.00    +0.000 C 
ATOM     34  C28 UNL     1     146.813 164.844 166.289  0.00  0.00    +0.000 C 
ATOM     35  C29 UNL     1     148.303 165.037 166.471  0.00  0.00    +0.000 C 
ATOM     36  N1  UNL     1     146.545 163.425 166.469  0.00  0.00    +0.000 NA
ATOM     37  C30 UNL     1     145.223 163.062 166.013  0.00  0.00    +0.000 C 
ENDBRANCH  28  29
ENDBRANCH  27  28
ENDBRANCH  25  27
ENDBRANCH  24  25
ENDBRANCH  13  24
TORSDOF 7
ENDMDL
