MODEL 1
REMARK VINA RESULT:      -6.1      0.000      0.000
REMARK  Name = ./3D_structures\o50_MMV233495_3D.pdb
REMARK  4 active torsions:
REMARK  status: ('A' for Active; 'I' for Inactive)
REMARK    1  A    between atoms: S1_1  and  N1_4
REMARK    2  A    between atoms: S1_1  and  C10_15
REMARK    3  A    between atoms: N1_4  and  C1_5
REMARK    4  A    between atoms: C13_18  and  C14_19
REMARK                            x       y       z     vdW  Elec       q    Type
REMARK                         _______ _______ _______ _____ _____    ______ ____
ROOT
ATOM      1  N1  UNL     1     156.077 159.659 170.504  0.00  0.00    +0.000 N 
ATOM      2  H1  UNL     1     156.548 160.596 170.530  0.00  0.00    +0.000 HD
ENDROOT
BRANCH   1   3
ATOM      3  C1  UNL     1     154.674 159.589 170.406  0.00  0.00    +0.000 A 
ATOM      4  C2  UNL     1     154.090 159.247 169.220  0.00  0.00    +0.000 A 
ATOM      5  C3  UNL     1     152.700 159.162 169.157  0.00  0.00    +0.000 A 
ATOM      6  C4  UNL     1     151.927 159.417 170.269  0.00  0.00    +0.000 A 
ATOM      7  C5  UNL     1     152.505 159.762 171.470  0.00  0.00    +0.000 A 
ATOM      8  C6  UNL     1     151.743 160.019 172.592  0.00  0.00    +0.000 A 
ATOM      9  C7  UNL     1     152.421 160.356 173.745  0.00  0.00    +0.000 A 
ATOM     10  C8  UNL     1     153.798 160.428 173.759  0.00  0.00    +0.000 A 
ATOM     11  N2  UNL     1     154.528 160.175 172.657  0.00  0.00    +0.000 NA
ATOM     12  C9  UNL     1     153.880 159.845 171.529  0.00  0.00    +0.000 A 
ENDBRANCH   1   3
BRANCH   1  13
ATOM     13  S1  UNL     1     157.032 158.246 170.584  0.00  0.00    +0.000 S 
ATOM     14  O1  UNL     1     156.173 157.134 171.176  0.00  0.00    +0.000 OA
ATOM     15  O2  UNL     1     158.223 158.434 171.507  0.00  0.00    +0.000 OA
BRANCH  13  16
ATOM     16  C10 UNL     1     157.558 157.795 168.995  0.00  0.00    +0.000 A 
ATOM     17  C11 UNL     1     158.699 158.384 168.497  0.00  0.00    +0.000 A 
ATOM     18  C12 UNL     1     159.115 158.055 167.226  0.00  0.00    +0.000 A 
ATOM     19  C13 UNL     1     158.438 157.158 166.425  0.00  0.00    +0.000 A 
ATOM     20  C14 UNL     1     158.960 156.857 165.054  0.00  0.00    +0.000 C 
ATOM     21  C15 UNL     1     157.302 156.574 166.922  0.00  0.00    +0.000 A 
ATOM     22  C16 UNL     1     156.874 156.890 168.189  0.00  0.00    +0.000 A 
ENDBRANCH  13  16
ENDBRANCH   1  13
TORSDOF 3
ENDMDL
MODEL 2
REMARK VINA RESULT:      -6.1      3.732      5.474
REMARK  Name = ./3D_structures\o50_MMV233495_3D.pdb
REMARK  4 active torsions:
REMARK  status: ('A' for Active; 'I' for Inactive)
REMARK    1  A    between atoms: S1_1  and  N1_4
REMARK    2  A    between atoms: S1_1  and  C10_15
REMARK    3  A    between atoms: N1_4  and  C1_5
REMARK    4  A    between atoms: C13_18  and  C14_19
REMARK                            x       y       z     vdW  Elec       q    Type
REMARK                         _______ _______ _______ _____ _____    ______ ____
ROOT
ATOM      1  N1  UNL     1     157.779 156.822 167.168  0.00  0.00    +0.000 N 
ATOM      2  H1  UNL     1     157.906 155.855 167.555  0.00  0.00    +0.000 HD
ENDROOT
BRANCH   1   3
ATOM      3  C1  UNL     1     158.175 157.935 167.935  0.00  0.00    +0.000 A 
ATOM      4  C2  UNL     1     159.138 158.780 167.463  0.00  0.00    +0.000 A 
ATOM      5  C3  UNL     1     159.493 159.888 168.232  0.00  0.00    +0.000 A 
ATOM      6  C4  UNL     1     158.886 160.127 169.445  0.00  0.00    +0.000 A 
ATOM      7  C5  UNL     1     157.913 159.282 169.931  0.00  0.00    +0.000 A 
ATOM      8  C6  UNL     1     157.297 159.510 171.144  0.00  0.00    +0.000 A 
ATOM      9  C7  UNL     1     156.335 158.603 171.538  0.00  0.00    +0.000 A 
ATOM     10  C8  UNL     1     156.017 157.521 170.744  0.00  0.00    +0.000 A 
ATOM     11  N2  UNL     1     156.627 157.311 169.563  0.00  0.00    +0.000 NA
ATOM     12  C9  UNL     1     157.564 158.188 169.169  0.00  0.00    +0.000 A 
ENDBRANCH   1   3
BRANCH   1  13
ATOM     13  S1  UNL     1     157.093 157.013 165.616  0.00  0.00    +0.000 S 
ATOM     14  O1  UNL     1     156.343 155.729 165.275  0.00  0.00    +0.000 OA
ATOM     15  O2  UNL     1     158.164 157.202 164.557  0.00  0.00    +0.000 OA
BRANCH  13  16
ATOM     16  C10 UNL     1     155.991 158.351 165.616  0.00  0.00    +0.000 A 
ATOM     17  C11 UNL     1     154.761 158.178 166.211  0.00  0.00    +0.000 A 
ATOM     18  C12 UNL     1     153.864 159.224 166.196  0.00  0.00    +0.000 A 
ATOM     19  C13 UNL     1     154.144 160.442 165.611  0.00  0.00    +0.000 A 
ATOM     20  C14 UNL     1     153.112 161.526 165.640  0.00  0.00    +0.000 C 
ATOM     21  C15 UNL     1     155.369 160.611 165.019  0.00  0.00    +0.000 A 
ATOM     22  C16 UNL     1     156.275 159.578 165.025  0.00  0.00    +0.000 A 
ENDBRANCH  13  16
ENDBRANCH   1  13
TORSDOF 3
ENDMDL
MODEL 3
REMARK VINA RESULT:      -5.9      9.190     11.750
REMARK  Name = ./3D_structures\o50_MMV233495_3D.pdb
REMARK  4 active torsions:
REMARK  status: ('A' for Active; 'I' for Inactive)
REMARK    1  A    between atoms: S1_1  and  N1_4
REMARK    2  A    between atoms: S1_1  and  C10_15
REMARK    3  A    between atoms: N1_4  and  C1_5
REMARK    4  A    between atoms: C13_18  and  C14_19
REMARK                            x       y       z     vdW  Elec       q    Type
REMARK                         _______ _______ _______ _____ _____    ______ ____
ROOT
ATOM      1  N1  UNL     1     146.419 162.271 166.728  0.00  0.00    +0.000 N 
ATOM      2  H1  UNL     1     147.009 161.851 165.969  0.00  0.00    +0.000 HD
ENDROOT
BRANCH   1   3
ATOM      3  C1  UNL     1     145.363 163.139 166.387  0.00  0.00    +0.000 A 
ATOM      4  C2  UNL     1     144.085 162.664 166.318  0.00  0.00    +0.000 A 
ATOM      5  C3  UNL     1     143.056 163.551 166.002  0.00  0.00    +0.000 A 
ATOM      6  C4  UNL     1     143.322 164.882 165.763  0.00  0.00    +0.000 A 
ATOM      7  C5  UNL     1     144.607 165.372 165.829  0.00  0.00    +0.000 A 
ATOM      8  C6  UNL     1     144.887 166.702 165.592  0.00  0.00    +0.000 A 
ATOM      9  C7  UNL     1     146.208 167.090 165.685  0.00  0.00    +0.000 A 
ATOM     10  C8  UNL     1     147.191 166.176 166.000  0.00  0.00    +0.000 A 
ATOM     11  N2  UNL     1     146.903 164.882 166.229  0.00  0.00    +0.000 NA
ATOM     12  C9  UNL     1     145.622 164.493 166.142  0.00  0.00    +0.000 A 
ENDBRANCH   1   3
BRANCH   1  13
ATOM     13  S1  UNL     1     146.759 161.887 168.357  0.00  0.00    +0.000 S 
ATOM     14  O1  UNL     1     147.619 160.627 168.370  0.00  0.00    +0.000 OA
ATOM     15  O2  UNL     1     145.490 161.572 169.128  0.00  0.00    +0.000 OA
BRANCH  13  16
ATOM     16  C10 UNL     1     147.621 163.191 169.105  0.00  0.00    +0.000 A 
ATOM     17  C11 UNL     1     146.890 164.187 169.713  0.00  0.00    +0.000 A 
ATOM     18  C12 UNL     1     147.560 165.244 170.291  0.00  0.00    +0.000 A 
ATOM     19  C13 UNL     1     148.935 165.349 170.288  0.00  0.00    +0.000 A 
ATOM     20  C14 UNL     1     149.584 166.531 170.939  0.00  0.00    +0.000 C 
ATOM     21  C15 UNL     1     149.661 164.357 169.682  0.00  0.00    +0.000 A 
ATOM     22  C16 UNL     1     149.008 163.295 169.102  0.00  0.00    +0.000 A 
ENDBRANCH  13  16
ENDBRANCH   1  13
TORSDOF 3
ENDMDL
MODEL 4
REMARK VINA RESULT:      -5.9      3.817      5.245
REMARK  Name = ./3D_structures\o50_MMV233495_3D.pdb
REMARK  4 active torsions:
REMARK  status: ('A' for Active; 'I' for Inactive)
REMARK    1  A    between atoms: S1_1  and  N1_4
REMARK    2  A    between atoms: S1_1  and  C10_15
REMARK    3  A    between atoms: N1_4  and  C1_5
REMARK    4  A    between atoms: C13_18  and  C14_19
REMARK                            x       y       z     vdW  Elec       q    Type
REMARK                         _______ _______ _______ _____ _____    ______ ____
ROOT
ATOM      1  N1  UNL     1     157.916 157.326 167.185  0.00  0.00    +0.000 N 
ATOM      2  H1  UNL     1     158.941 157.099 167.190  0.00  0.00    +0.000 HD
ENDROOT
BRANCH   1   3
ATOM      3  C1  UNL     1     157.281 157.696 168.387  0.00  0.00    +0.000 A 
ATOM      4  C2  UNL     1     156.394 156.843 168.979  0.00  0.00    +0.000 A 
ATOM      5  C3  UNL     1     155.798 157.223 170.181  0.00  0.00    +0.000 A 
ATOM      6  C4  UNL     1     156.097 158.435 170.763  0.00  0.00    +0.000 A 
ATOM      7  C5  UNL     1     156.991 159.303 170.176  0.00  0.00    +0.000 A 
ATOM      8  C6  UNL     1     157.299 160.520 170.748  0.00  0.00    +0.000 A 
ATOM      9  C7  UNL     1     158.207 161.314 170.078  0.00  0.00    +0.000 A 
ATOM     10  C8  UNL     1     158.771 160.896 168.891  0.00  0.00    +0.000 A 
ATOM     11  N2  UNL     1     158.460 159.706 168.344  0.00  0.00    +0.000 NA
ATOM     12  C9  UNL     1     157.578 158.924 168.988  0.00  0.00    +0.000 A 
ENDBRANCH   1   3
BRANCH   1  13
ATOM     13  S1  UNL     1     157.052 157.238 165.716  0.00  0.00    +0.000 S 
ATOM     14  O1  UNL     1     156.335 155.892 165.674  0.00  0.00    +0.000 OA
ATOM     15  O2  UNL     1     157.986 157.286 164.520  0.00  0.00    +0.000 OA
BRANCH  13  16
ATOM     16  C10 UNL     1     155.889 158.521 165.634  0.00  0.00    +0.000 A 
ATOM     17  C11 UNL     1     156.274 159.708 165.050  0.00  0.00    +0.000 A 
ATOM     18  C12 UNL     1     155.369 160.747 165.000  0.00  0.00    +0.000 A 
ATOM     19  C13 UNL     1     154.091 160.651 165.510  0.00  0.00    +0.000 A 
ATOM     20  C14 UNL     1     153.171 161.828 165.414  0.00  0.00    +0.000 C 
ATOM     21  C15 UNL     1     153.711 159.469 166.091  0.00  0.00    +0.000 A 
ATOM     22  C16 UNL     1     154.601 158.423 166.148  0.00  0.00    +0.000 A 
ENDBRANCH  13  16
ENDBRANCH   1  13
TORSDOF 3
ENDMDL
MODEL 5
REMARK VINA RESULT:      -5.9      1.469      2.547
REMARK  Name = ./3D_structures\o50_MMV233495_3D.pdb
REMARK  4 active torsions:
REMARK  status: ('A' for Active; 'I' for Inactive)
REMARK    1  A    between atoms: S1_1  and  N1_4
REMARK    2  A    between atoms: S1_1  and  C10_15
REMARK    3  A    between atoms: N1_4  and  C1_5
REMARK    4  A    between atoms: C13_18  and  C14_19
REMARK                            x       y       z     vdW  Elec       q    Type
REMARK                         _______ _______ _______ _____ _____    ______ ____
ROOT
ATOM      1  N1  UNL     1     155.260 159.463 169.934  0.00  0.00    +0.000 N 
ATOM      2  H1  UNL     1     154.987 160.143 169.183  0.00  0.00    +0.000 HD
ENDROOT
BRANCH   1   3
ATOM      3  C1  UNL     1     155.235 159.871 171.283  0.00  0.00    +0.000 A 
ATOM      4  C2  UNL     1     156.400 160.187 171.921  0.00  0.00    +0.000 A 
ATOM      5  C3  UNL     1     156.344 160.611 173.248  0.00  0.00    +0.000 A 
ATOM      6  C4  UNL     1     155.137 160.711 173.905  0.00  0.00    +0.000 A 
ATOM      7  C5  UNL     1     153.956 160.396 173.272  0.00  0.00    +0.000 A 
ATOM      8  C6  UNL     1     152.740 160.492 173.918  0.00  0.00    +0.000 A 
ATOM      9  C7  UNL     1     151.617 160.153 173.192  0.00  0.00    +0.000 A 
ATOM     10  C8  UNL     1     151.722 159.738 171.881  0.00  0.00    +0.000 A 
ATOM     11  N2  UNL     1     152.914 159.649 171.264  0.00  0.00    +0.000 NA
ATOM     12  C9  UNL     1     154.014 159.977 171.960  0.00  0.00    +0.000 A 
ENDBRANCH   1   3
BRANCH   1  13
ATOM     13  S1  UNL     1     155.728 157.881 169.494  0.00  0.00    +0.000 S 
ATOM     14  O1  UNL     1     154.648 157.311 168.581  0.00  0.00    +0.000 OA
ATOM     15  O2  UNL     1     155.816 156.972 170.708  0.00  0.00    +0.000 OA
BRANCH  13  16
ATOM     16  C10 UNL     1     157.242 157.924 168.652  0.00  0.00    +0.000 A 
ATOM     17  C11 UNL     1     158.328 158.473 169.297  0.00  0.00    +0.000 A 
ATOM     18  C12 UNL     1     159.533 158.537 168.631  0.00  0.00    +0.000 A 
ATOM     19  C13 UNL     1     159.701 158.075 167.343  0.00  0.00    +0.000 A 
ATOM     20  C14 UNL     1     161.046 158.183 166.693  0.00  0.00    +0.000 C 
ATOM     21  C15 UNL     1     158.619 157.529 166.703  0.00  0.00    +0.000 A 
ATOM     22  C16 UNL     1     157.410 157.456 167.353  0.00  0.00    +0.000 A 
ENDBRANCH  13  16
ENDBRANCH   1  13
TORSDOF 3
ENDMDL
MODEL 6
REMARK VINA RESULT:      -5.9      2.468      3.784
REMARK  Name = ./3D_structures\o50_MMV233495_3D.pdb
REMARK  4 active torsions:
REMARK  status: ('A' for Active; 'I' for Inactive)
REMARK    1  A    between atoms: S1_1  and  N1_4
REMARK    2  A    between atoms: S1_1  and  C10_15
REMARK    3  A    between atoms: N1_4  and  C1_5
REMARK    4  A    between atoms: C13_18  and  C14_19
REMARK                            x       y       z     vdW  Elec       q    Type
REMARK                         _______ _______ _______ _____ _____    ______ ____
ROOT
ATOM      1  N1  UNL     1     155.607 159.489 167.889  0.00  0.00    +0.000 N 
ATOM      2  H1  UNL     1     155.419 160.490 167.635  0.00  0.00    +0.000 HD
ENDROOT
BRANCH   1   3
ATOM      3  C1  UNL     1     156.334 159.195 169.059  0.00  0.00    +0.000 A 
ATOM      4  C2  UNL     1     157.580 158.643 168.965  0.00  0.00    +0.000 A 
ATOM      5  C3  UNL     1     158.288 158.385 170.138  0.00  0.00    +0.000 A 
ATOM      6  C4  UNL     1     157.744 158.680 171.369  0.00  0.00    +0.000 A 
ATOM      7  C5  UNL     1     156.489 159.236 171.476  0.00  0.00    +0.000 A 
ATOM      8  C6  UNL     1     155.933 159.537 172.702  0.00  0.00    +0.000 A 
ATOM      9  C7  UNL     1     154.670 160.092 172.697  0.00  0.00    +0.000 A 
ATOM     10  C8  UNL     1     154.008 160.329 171.511  0.00  0.00    +0.000 A 
ATOM     11  N2  UNL     1     154.563 160.031 170.322  0.00  0.00    +0.000 NA
ATOM     12  C9  UNL     1     155.792 159.491 170.314  0.00  0.00    +0.000 A 
ENDBRANCH   1   3
BRANCH   1  13
ATOM     13  S1  UNL     1     155.023 158.249 166.871  0.00  0.00    +0.000 S 
ATOM     14  O1  UNL     1     153.892 158.829 166.028  0.00  0.00    +0.000 OA
ATOM     15  O2  UNL     1     154.439 157.101 167.676  0.00  0.00    +0.000 OA
BRANCH  13  16
ATOM     16  C10 UNL     1     156.293 157.684 165.836  0.00  0.00    +0.000 A 
ATOM     17  C11 UNL     1     156.723 156.385 165.986  0.00  0.00    +0.000 A 
ATOM     18  C12 UNL     1     157.750 155.929 165.188  0.00  0.00    +0.000 A 
ATOM     19  C13 UNL     1     158.369 156.718 164.241  0.00  0.00    +0.000 A 
ATOM     20  C14 UNL     1     159.478 156.143 163.415  0.00  0.00    +0.000 C 
ATOM     21  C15 UNL     1     157.940 158.012 164.094  0.00  0.00    +0.000 A 
ATOM     22  C16 UNL     1     156.916 158.482 164.882  0.00  0.00    +0.000 A 
ENDBRANCH  13  16
ENDBRANCH   1  13
TORSDOF 3
ENDMDL
MODEL 7
REMARK VINA RESULT:      -5.9      2.903      4.140
REMARK  Name = ./3D_structures\o50_MMV233495_3D.pdb
REMARK  4 active torsions:
REMARK  status: ('A' for Active; 'I' for Inactive)
REMARK    1  A    between atoms: S1_1  and  N1_4
REMARK    2  A    between atoms: S1_1  and  C10_15
REMARK    3  A    between atoms: N1_4  and  C1_5
REMARK    4  A    between atoms: C13_18  and  C14_19
REMARK                            x       y       z     vdW  Elec       q    Type
REMARK                         _______ _______ _______ _____ _____    ______ ____
ROOT
ATOM      1  N1  UNL     1     154.918 157.883 170.044  0.00  0.00    +0.000 N 
ATOM      2  H1  UNL     1     154.155 157.314 170.485  0.00  0.00    +0.000 HD
ENDROOT
BRANCH   1   3
ATOM      3  C1  UNL     1     154.988 157.982 168.640  0.00  0.00    +0.000 A 
ATOM      4  C2  UNL     1     155.790 157.130 167.936  0.00  0.00    +0.000 A 
ATOM      5  C3  UNL     1     155.821 157.233 166.546  0.00  0.00    +0.000 A 
ATOM      6  C4  UNL     1     155.057 158.175 165.893  0.00  0.00    +0.000 A 
ATOM      7  C5  UNL     1     154.244 159.039 166.591  0.00  0.00    +0.000 A 
ATOM      8  C6  UNL     1     153.474 159.986 165.949  0.00  0.00    +0.000 A 
ATOM      9  C7  UNL     1     152.694 160.802 166.744  0.00  0.00    +0.000 A 
ATOM     10  C8  UNL     1     152.696 160.663 168.115  0.00  0.00    +0.000 A 
ATOM     11  N2  UNL     1     153.453 159.734 168.728  0.00  0.00    +0.000 NA
ATOM     12  C9  UNL     1     154.215 158.934 167.966  0.00  0.00    +0.000 A 
ENDBRANCH   1   3
BRANCH   1  13
ATOM     13  S1  UNL     1     156.054 158.672 171.046  0.00  0.00    +0.000 S 
ATOM     14  O1  UNL     1     156.563 157.657 172.064  0.00  0.00    +0.000 OA
ATOM     15  O2  UNL     1     155.411 159.806 171.824  0.00  0.00    +0.000 OA
BRANCH  13  16
ATOM     16  C10 UNL     1     157.378 159.258 170.093  0.00  0.00    +0.000 A 
ATOM     17  C11 UNL     1     158.404 158.387 169.803  0.00  0.00    +0.000 A 
ATOM     18  C12 UNL     1     159.476 158.845 169.068  0.00  0.00    +0.000 A 
ATOM     19  C13 UNL     1     159.568 160.142 168.608  0.00  0.00    +0.000 A 
ATOM     20  C14 UNL     1     160.769 160.558 167.816  0.00  0.00    +0.000 C 
ATOM     21  C15 UNL     1     158.546 161.008 168.898  0.00  0.00    +0.000 A 
ATOM     22  C16 UNL     1     157.469 160.567 169.630  0.00  0.00    +0.000 A 
ENDBRANCH  13  16
ENDBRANCH   1  13
TORSDOF 3
ENDMDL
MODEL 8
REMARK VINA RESULT:      -5.9      3.276      4.632
REMARK  Name = ./3D_structures\o50_MMV233495_3D.pdb
REMARK  4 active torsions:
REMARK  status: ('A' for Active; 'I' for Inactive)
REMARK    1  A    between atoms: S1_1  and  N1_4
REMARK    2  A    between atoms: S1_1  and  C10_15
REMARK    3  A    between atoms: N1_4  and  C1_5
REMARK    4  A    between atoms: C13_18  and  C14_19
REMARK                            x       y       z     vdW  Elec       q    Type
REMARK                         _______ _______ _______ _____ _____    ______ ____
ROOT
ATOM      1  N1  UNL     1     155.830 157.067 168.217  0.00  0.00    +0.000 N 
ATOM      2  H1  UNL     1     155.193 156.250 168.386  0.00  0.00    +0.000 HD
ENDROOT
BRANCH   1   3
ATOM      3  C1  UNL     1     156.298 157.821 169.311  0.00  0.00    +0.000 A 
ATOM      4  C2  UNL     1     157.631 157.841 169.604  0.00  0.00    +0.000 A 
ATOM      5  C3  UNL     1     158.070 158.616 170.677  0.00  0.00    +0.000 A 
ATOM      6  C4  UNL     1     157.177 159.348 171.429  0.00  0.00    +0.000 A 
ATOM      7  C5  UNL     1     155.830 159.336 171.142  0.00  0.00    +0.000 A 
ATOM      8  C6  UNL     1     154.926 160.065 171.887  0.00  0.00    +0.000 A 
ATOM      9  C7  UNL     1     153.600 159.984 171.515  0.00  0.00    +0.000 A 
ATOM     10  C8  UNL     1     153.213 159.203 170.446  0.00  0.00    +0.000 A 
ATOM     11  N2  UNL     1     154.106 158.497 169.729  0.00  0.00    +0.000 NA
ATOM     12  C9  UNL     1     155.400 158.570 170.081  0.00  0.00    +0.000 A 
ENDBRANCH   1   3
BRANCH   1  13
ATOM     13  S1  UNL     1     156.277 157.455 166.616  0.00  0.00    +0.000 S 
ATOM     14  O1  UNL     1     155.909 156.272 165.727  0.00  0.00    +0.000 OA
ATOM     15  O2  UNL     1     157.777 157.658 166.494  0.00  0.00    +0.000 OA
BRANCH  13  16
ATOM     16  C10 UNL     1     155.425 158.870 166.088  0.00  0.00    +0.000 A 
ATOM     17  C11 UNL     1     154.065 158.925 166.302  0.00  0.00    +0.000 A 
ATOM     18  C12 UNL     1     153.369 160.031 165.866  0.00  0.00    +0.000 A 
ATOM     19  C13 UNL     1     153.975 161.090 165.223  0.00  0.00    +0.000 A 
ATOM     20  C14 UNL     1     153.144 162.255 164.781  0.00  0.00    +0.000 C 
ATOM     21  C15 UNL     1     155.328 161.033 165.011  0.00  0.00    +0.000 A 
ATOM     22  C16 UNL     1     156.037 159.937 165.440  0.00  0.00    +0.000 A 
ENDBRANCH  13  16
ENDBRANCH   1  13
TORSDOF 3
ENDMDL
MODEL 9
REMARK VINA RESULT:      -5.8      3.097      6.178
REMARK  Name = ./3D_structures\o50_MMV233495_3D.pdb
REMARK  4 active torsions:
REMARK  status: ('A' for Active; 'I' for Inactive)
REMARK    1  A    between atoms: S1_1  and  N1_4
REMARK    2  A    between atoms: S1_1  and  C10_15
REMARK    3  A    between atoms: N1_4  and  C1_5
REMARK    4  A    between atoms: C13_18  and  C14_19
REMARK                            x       y       z     vdW  Elec       q    Type
REMARK                         _______ _______ _______ _____ _____    ______ ____
ROOT
ATOM      1  N1  UNL     1     155.232 157.202 169.480  0.00  0.00    +0.000 N 
ATOM      2  H1  UNL     1     155.029 156.199 169.710  0.00  0.00    +0.000 HD
ENDROOT
BRANCH   1   3
ATOM      3  C1  UNL     1     156.548 157.589 169.159  0.00  0.00    +0.000 A 
ATOM      4  C2  UNL     1     157.319 158.222 170.092  0.00  0.00    +0.000 A 
ATOM      5  C3  UNL     1     158.626 158.571 169.756  0.00  0.00    +0.000 A 
ATOM      6  C4  UNL     1     159.133 158.285 168.507  0.00  0.00    +0.000 A 
ATOM      7  C5  UNL     1     158.365 157.648 167.558  0.00  0.00    +0.000 A 
ATOM      8  C6  UNL     1     158.861 157.355 166.304  0.00  0.00    +0.000 A 
ATOM      9  C7  UNL     1     158.008 156.714 165.429  0.00  0.00    +0.000 A 
ATOM     10  C8  UNL     1     156.723 156.388 165.806  0.00  0.00    +0.000 A 
ATOM     11  N2  UNL     1     156.253 156.680 167.033  0.00  0.00    +0.000 NA
ATOM     12  C9  UNL     1     157.073 157.303 167.894  0.00  0.00    +0.000 A 
ENDBRANCH   1   3
BRANCH   1  13
ATOM     13  S1  UNL     1     153.955 158.336 169.505  0.00  0.00    +0.000 S 
ATOM     14  O1  UNL     1     154.057 159.126 170.804  0.00  0.00    +0.000 OA
ATOM     15  O2  UNL     1     152.602 157.645 169.503  0.00  0.00    +0.000 OA
BRANCH  13  16
ATOM     16  C10 UNL     1     154.092 159.413 168.153  0.00  0.00    +0.000 A 
ATOM     17  C11 UNL     1     154.502 160.705 168.393  0.00  0.00    +0.000 A 
ATOM     18  C12 UNL     1     154.592 161.581 167.333  0.00  0.00    +0.000 A 
ATOM     19  C13 UNL     1     154.289 161.219 166.036  0.00  0.00    +0.000 A 
ATOM     20  C14 UNL     1     154.413 162.234 164.942  0.00  0.00    +0.000 C 
ATOM     21  C15 UNL     1     153.881 159.932 165.800  0.00  0.00    +0.000 A 
ATOM     22  C16 UNL     1     153.786 159.046 166.847  0.00  0.00    +0.000 A 
ENDBRANCH  13  16
ENDBRANCH   1  13
TORSDOF 3
ENDMDL
