MODEL 1
REMARK VINA RESULT:      -5.7      0.000      0.000
REMARK  Name = ./3D_structures\o53_MMV303733_3D.pdb
REMARK  12 active torsions:
REMARK  status: ('A' for Active; 'I' for Inactive)
REMARK    1  A    between atoms: C1_1  and  O1_2
REMARK    2  A    between atoms: O1_2  and  C2_3
REMARK    3  A    between atoms: C5_6  and  C6_7
REMARK    4  A    between atoms: C6_7  and  N1_8
REMARK    5  A    between atoms: C7_9  and  C8_11
REMARK    6  A    between atoms: C8_11  and  N2_12
REMARK    7  A    between atoms: C8_11  and  C17_26
REMARK    8  A    between atoms: N2_12  and  S1_13
REMARK    9  A    between atoms: S1_13  and  C9_16
REMARK   10  A    between atoms: C13_21  and  C14_22
REMARK   11  A    between atoms: C17_26  and  C18_27
REMARK   12  A    between atoms: C17_26  and  C19_28
REMARK                            x       y       z     vdW  Elec       q    Type
REMARK                         _______ _______ _______ _____ _____    ______ ____
ROOT
ATOM      1  C8  UNL     1     153.243 160.903 172.072  0.00  0.00    +0.000 C 
ENDROOT
BRANCH   1   3
ATOM      2  N1  UNL     1     153.130 159.124 170.342  0.00  0.00    +0.000 N 
ATOM      3  C7  UNL     1     153.058 160.527 170.671  0.00  0.00    +0.000 C 
ATOM      4  O2  UNL     1     152.813 161.328 169.730  0.00  0.00    +0.000 OA
ATOM      5  H8  UNL     1     153.373 158.501 171.173  0.00  0.00    +0.000 HD
BRANCH   2   6
ATOM      6  C6  UNL     1     152.924 158.550 169.083  0.00  0.00    +0.000 C 
BRANCH   6  10
ATOM      7  C2  UNL     1     155.929 157.708 166.260  0.00  0.00    +0.000 A 
ATOM      8  C3  UNL     1     155.946 157.017 167.454  0.00  0.00    +0.000 A 
ATOM      9  C4  UNL     1     154.978 157.302 168.426  0.00  0.00    +0.000 A 
ATOM     10  C5  UNL     1     154.039 158.255 168.185  0.00  0.00    +0.000 A 
ATOM     11  C20 UNL     1     154.051 158.960 166.942  0.00  0.00    +0.000 A 
ATOM     12  C21 UNL     1     154.984 158.673 166.013  0.00  0.00    +0.000 A 
BRANCH   7  14
ATOM     13  C1  UNL     1     157.079 156.066 164.847  0.00  0.00    +0.000 C 
ATOM     14  O1  UNL     1     156.892 157.399 165.309  0.00  0.00    +0.000 OA
ENDBRANCH   7  14
ENDBRANCH   6  10
ENDBRANCH   2   6
ENDBRANCH   1   3
BRANCH   1  15
ATOM     15  C17 UNL     1     152.170 161.020 173.018  0.00  0.00    +0.000 C 
ATOM     16  C18 UNL     1     151.689 159.812 173.766  0.00  0.00    +0.000 C 
ATOM     17  C19 UNL     1     152.132 162.277 173.894  0.00  0.00    +0.000 C 
ENDBRANCH   1  15
BRANCH   1  18
ATOM     18  N2  UNL     1     154.482 161.629 172.263  0.00  0.00    +0.000 NA
ATOM     19  H10 UNL     1     154.589 162.446 171.681  0.00  0.00    +0.000 HD
BRANCH  18  20
ATOM     20  S1  UNL     1     155.822 160.709 172.656  0.00  0.00    +0.000 S 
ATOM     21  O3  UNL     1     155.424 159.557 173.610  0.00  0.00    +0.000 OA
ATOM     22  O4  UNL     1     156.821 161.503 173.514  0.00  0.00    +0.000 OA
BRANCH  20  23
ATOM     23  C9  UNL     1     156.668 160.034 171.308  0.00  0.00    +0.000 A 
ATOM     24  C10 UNL     1     157.409 158.896 171.369  0.00  0.00    +0.000 A 
ATOM     25  C11 UNL     1     158.194 158.424 170.326  0.00  0.00    +0.000 A 
ATOM     26  C12 UNL     1     158.267 159.123 169.117  0.00  0.00    +0.000 A 
ATOM     27  N3  UNL     1     158.966 158.885 168.033  0.00  0.00    +0.000 NA
ATOM     28  C13 UNL     1     159.077 159.448 167.035  0.00  0.00    +0.000 A 
ATOM     29  C14 UNL     1     159.719 159.535 165.671  0.00  0.00    +0.000 C 
ATOM     30  S2  UNL     1     157.887 160.919 167.412  0.00  0.00    +0.000 S 
ATOM     31  C15 UNL     1     157.503 160.271 169.080  0.00  0.00    +0.000 A 
ATOM     32  C16 UNL     1     156.721 160.751 170.098  0.00  0.00    +0.000 A 
ENDBRANCH  20  23
ENDBRANCH  18  20
ENDBRANCH   1  18
TORSDOF 8
ENDMDL
MODEL 2
REMARK VINA RESULT:      -5.5      7.275      9.437
REMARK  Name = ./3D_structures\o53_MMV303733_3D.pdb
REMARK  12 active torsions:
REMARK  status: ('A' for Active; 'I' for Inactive)
REMARK    1  A    between atoms: C1_1  and  O1_2
REMARK    2  A    between atoms: O1_2  and  C2_3
REMARK    3  A    between atoms: C5_6  and  C6_7
REMARK    4  A    between atoms: C6_7  and  N1_8
REMARK    5  A    between atoms: C7_9  and  C8_11
REMARK    6  A    between atoms: C8_11  and  N2_12
REMARK    7  A    between atoms: C8_11  and  C17_26
REMARK    8  A    between atoms: N2_12  and  S1_13
REMARK    9  A    between atoms: S1_13  and  C9_16
REMARK   10  A    between atoms: C13_21  and  C14_22
REMARK   11  A    between atoms: C17_26  and  C18_27
REMARK   12  A    between atoms: C17_26  and  C19_28
REMARK                            x       y       z     vdW  Elec       q    Type
REMARK                         _______ _______ _______ _____ _____    ______ ____
ROOT
ATOM      1  C8  UNL     1     147.376 165.458 167.148  0.00  0.00    +0.000 C 
ENDROOT
BRANCH   1   3
ATOM      2  N1  UNL     1     149.431 165.341 165.758  0.00  0.00    +0.000 N 
ATOM      3  C7  UNL     1     148.795 165.769 166.980  0.00  0.00    +0.000 C 
ATOM      4  O2  UNL     1     149.502 166.406 167.805  0.00  0.00    +0.000 OA
ATOM      5  H8  UNL     1     148.791 164.778 165.116  0.00  0.00    +0.000 HD
BRANCH   2   6
ATOM      6  C6  UNL     1     150.753 165.587 165.375  0.00  0.00    +0.000 C 
BRANCH   6  10
ATOM      7  C2  UNL     1     153.472 162.412 164.886  0.00  0.00    +0.000 A 
ATOM      8  C3  UNL     1     153.590 163.503 164.051  0.00  0.00    +0.000 A 
ATOM      9  C4  UNL     1     152.677 164.559 164.168  0.00  0.00    +0.000 A 
ATOM     10  C5  UNL     1     151.686 164.496 165.098  0.00  0.00    +0.000 A 
ATOM     11  C20 UNL     1     151.584 163.349 165.943  0.00  0.00    +0.000 A 
ATOM     12  C21 UNL     1     152.472 162.342 165.824  0.00  0.00    +0.000 A 
BRANCH   7  14
ATOM     13  C1  UNL     1     154.494 160.348 165.728  0.00  0.00    +0.000 C 
ATOM     14  O1  UNL     1     154.396 161.384 164.757  0.00  0.00    +0.000 OA
ENDBRANCH   7  14
ENDBRANCH   6  10
ENDBRANCH   2   6
ENDBRANCH   1   3
BRANCH   1  15
ATOM     15  C17 UNL     1     146.416 165.494 166.081  0.00  0.00    +0.000 C 
ATOM     16  C18 UNL     1     145.610 164.273 165.752  0.00  0.00    +0.000 C 
ATOM     17  C19 UNL     1     145.593 166.775 165.910  0.00  0.00    +0.000 C 
ENDBRANCH   1  15
BRANCH   1  18
ATOM     18  N2  UNL     1     146.960 165.630 168.525  0.00  0.00    +0.000 NA
ATOM     19  H10 UNL     1     146.990 166.579 168.863  0.00  0.00    +0.000 HD
BRANCH  18  20
ATOM     20  S1  UNL     1     147.314 164.367 169.564  0.00  0.00    +0.000 S 
ATOM     21  O3  UNL     1     146.245 164.271 170.679  0.00  0.00    +0.000 OA
ATOM     22  O4  UNL     1     148.594 164.641 170.370  0.00  0.00    +0.000 OA
BRANCH  20  23
ATOM     23  C9  UNL     1     147.459 162.818 168.810  0.00  0.00    +0.000 A 
ATOM     24  C10 UNL     1     148.638 162.277 168.407  0.00  0.00    +0.000 A 
ATOM     25  C11 UNL     1     148.744 161.096 167.686  0.00  0.00    +0.000 A 
ATOM     26  C12 UNL     1     147.600 160.379 167.322  0.00  0.00    +0.000 A 
ATOM     27  N3  UNL     1     147.468 159.280 166.617  0.00  0.00    +0.000 NA
ATOM     28  C13 UNL     1     146.549 158.678 166.273  0.00  0.00    +0.000 A 
ATOM     29  C14 UNL     1     145.995 157.497 165.512  0.00  0.00    +0.000 C 
ATOM     30  S2  UNL     1     145.179 159.788 167.059  0.00  0.00    +0.000 S 
ATOM     31  C15 UNL     1     146.417 160.946 167.748  0.00  0.00    +0.000 A 
ATOM     32  C16 UNL     1     146.293 162.110 168.462  0.00  0.00    +0.000 A 
ENDBRANCH  20  23
ENDBRANCH  18  20
ENDBRANCH   1  18
TORSDOF 8
ENDMDL
MODEL 3
REMARK VINA RESULT:      -5.5      6.499      9.052
REMARK  Name = ./3D_structures\o53_MMV303733_3D.pdb
REMARK  12 active torsions:
REMARK  status: ('A' for Active; 'I' for Inactive)
REMARK    1  A    between atoms: C1_1  and  O1_2
REMARK    2  A    between atoms: O1_2  and  C2_3
REMARK    3  A    between atoms: C5_6  and  C6_7
REMARK    4  A    between atoms: C6_7  and  N1_8
REMARK    5  A    between atoms: C7_9  and  C8_11
REMARK    6  A    between atoms: C8_11  and  N2_12
REMARK    7  A    between atoms: C8_11  and  C17_26
REMARK    8  A    between atoms: N2_12  and  S1_13
REMARK    9  A    between atoms: S1_13  and  C9_16
REMARK   10  A    between atoms: C13_21  and  C14_22
REMARK   11  A    between atoms: C17_26  and  C18_27
REMARK   12  A    between atoms: C17_26  and  C19_28
REMARK                            x       y       z     vdW  Elec       q    Type
REMARK                         _______ _______ _______ _____ _____    ______ ____
ROOT
ATOM      1  C8  UNL     1     151.724 163.511 166.092  0.00  0.00    +0.000 C 
ENDROOT
BRANCH   1   3
ATOM      2  N1  UNL     1     152.434 161.666 167.596  0.00  0.00    +0.000 N 
ATOM      3  C7  UNL     1     151.647 162.099 166.467  0.00  0.00    +0.000 C 
ATOM      4  O2  UNL     1     150.927 161.234 165.901  0.00  0.00    +0.000 OA
ATOM      5  H8  UNL     1     153.047 162.434 168.012  0.00  0.00    +0.000 HD
BRANCH   2   6
ATOM      6  C6  UNL     1     152.458 160.384 168.154  0.00  0.00    +0.000 C 
BRANCH   6  10
ATOM      7  C2  UNL     1     155.226 157.433 166.994  0.00  0.00    +0.000 A 
ATOM      8  C3  UNL     1     154.843 158.370 166.058  0.00  0.00    +0.000 A 
ATOM      9  C4  UNL     1     153.897 159.343 166.405  0.00  0.00    +0.000 A 
ATOM     10  C5  UNL     1     153.365 159.350 167.657  0.00  0.00    +0.000 A 
ATOM     11  C20 UNL     1     153.775 158.363 168.604  0.00  0.00    +0.000 A 
ATOM     12  C21 UNL     1     154.690 157.435 168.259  0.00  0.00    +0.000 A 
BRANCH   7  14
ATOM     13  C1  UNL     1     156.858 156.566 165.383  0.00  0.00    +0.000 C 
ATOM     14  O1  UNL     1     156.173 156.487 166.628  0.00  0.00    +0.000 OA
ENDBRANCH   7  14
ENDBRANCH   6  10
ENDBRANCH   2   6
ENDBRANCH   1   3
BRANCH   1  15
ATOM     15  C17 UNL     1     152.045 163.973 164.772  0.00  0.00    +0.000 C 
ATOM     16  C18 UNL     1     151.956 165.434 164.443  0.00  0.00    +0.000 C 
ATOM     17  C19 UNL     1     153.222 163.305 164.053  0.00  0.00    +0.000 C 
ENDBRANCH   1  15
BRANCH   1  18
ATOM     18  N2  UNL     1     151.962 164.350 167.249  0.00  0.00    +0.000 NA
ATOM     19  H10 UNL     1     152.855 164.212 167.698  0.00  0.00    +0.000 HD
BRANCH  18  20
ATOM     20  S1  UNL     1     150.620 164.728 168.173  0.00  0.00    +0.000 S 
ATOM     21  O3  UNL     1     150.884 166.003 169.010  0.00  0.00    +0.000 OA
ATOM     22  O4  UNL     1     150.369 163.676 169.265  0.00  0.00    +0.000 OA
BRANCH  20  23
ATOM     23  C9  UNL     1     149.157 164.955 167.280  0.00  0.00    +0.000 A 
ATOM     24  C10 UNL     1     148.826 166.110 166.645  0.00  0.00    +0.000 A 
ATOM     25  C11 UNL     1     147.598 166.339 166.040  0.00  0.00    +0.000 A 
ATOM     26  C12 UNL     1     146.602 165.358 166.057  0.00  0.00    +0.000 A 
ATOM     27  N3  UNL     1     145.375 165.377 165.591  0.00  0.00    +0.000 NA
ATOM     28  C13 UNL     1     144.520 164.607 165.612  0.00  0.00    +0.000 A 
ATOM     29  C14 UNL     1     143.094 164.258 165.257  0.00  0.00    +0.000 C 
ATOM     30  S2  UNL     1     145.433 163.202 166.569  0.00  0.00    +0.000 S 
ATOM     31  C15 UNL     1     146.965 164.195 166.703  0.00  0.00    +0.000 A 
ATOM     32  C16 UNL     1     148.172 163.950 167.304  0.00  0.00    +0.000 A 
ENDBRANCH  20  23
ENDBRANCH  18  20
ENDBRANCH   1  18
TORSDOF 8
ENDMDL
MODEL 4
REMARK VINA RESULT:      -5.4      3.783      7.270
REMARK  Name = ./3D_structures\o53_MMV303733_3D.pdb
REMARK  12 active torsions:
REMARK  status: ('A' for Active; 'I' for Inactive)
REMARK    1  A    between atoms: C1_1  and  O1_2
REMARK    2  A    between atoms: O1_2  and  C2_3
REMARK    3  A    between atoms: C5_6  and  C6_7
REMARK    4  A    between atoms: C6_7  and  N1_8
REMARK    5  A    between atoms: C7_9  and  C8_11
REMARK    6  A    between atoms: C8_11  and  N2_12
REMARK    7  A    between atoms: C8_11  and  C17_26
REMARK    8  A    between atoms: N2_12  and  S1_13
REMARK    9  A    between atoms: S1_13  and  C9_16
REMARK   10  A    between atoms: C13_21  and  C14_22
REMARK   11  A    between atoms: C17_26  and  C18_27
REMARK   12  A    between atoms: C17_26  and  C19_28
REMARK                            x       y       z     vdW  Elec       q    Type
REMARK                         _______ _______ _______ _____ _____    ______ ____
ROOT
ATOM      1  C8  UNL     1     157.049 158.138 168.854  0.00  0.00    +0.000 C 
ENDROOT
BRANCH   1   3
ATOM      2  N1  UNL     1     158.631 159.942 168.211  0.00  0.00    +0.000 N 
ATOM      3  C7  UNL     1     158.406 158.685 168.882  0.00  0.00    +0.000 C 
ATOM      4  O2  UNL     1     159.389 158.160 169.469  0.00  0.00    +0.000 OA
ATOM      5  H8  UNL     1     157.771 160.319 167.705  0.00  0.00    +0.000 HD
BRANCH   2   6
ATOM      6  C6  UNL     1     159.829 160.662 168.169  0.00  0.00    +0.000 C 
BRANCH   6  10
ATOM      7  C2  UNL     1     160.505 163.719 170.982  0.00  0.00    +0.000 A 
ATOM      8  C3  UNL     1     161.589 163.222 170.289  0.00  0.00    +0.000 A 
ATOM      9  C4  UNL     1     161.398 162.180 169.371  0.00  0.00    +0.000 A 
ATOM     10  C5  UNL     1     160.153 161.670 169.178  0.00  0.00    +0.000 A 
ATOM     11  C20 UNL     1     159.051 162.199 169.916  0.00  0.00    +0.000 A 
ATOM     12  C21 UNL     1     159.246 163.205 170.792  0.00  0.00    +0.000 A 
BRANCH   7  14
ATOM     13  C1  UNL     1     162.027 165.096 172.324  0.00  0.00    +0.000 C 
ATOM     14  O1  UNL     1     160.719 164.758 171.877  0.00  0.00    +0.000 OA
ENDBRANCH   7  14
ENDBRANCH   6  10
ENDBRANCH   2   6
ENDBRANCH   1   3
BRANCH   1  15
ATOM     15  C17 UNL     1     156.087 158.329 169.901  0.00  0.00    +0.000 C 
ATOM     16  C18 UNL     1     154.698 157.782 169.757  0.00  0.00    +0.000 C 
ATOM     17  C19 UNL     1     156.584 158.232 171.347  0.00  0.00    +0.000 C 
ENDBRANCH   1  15
BRANCH   1  18
ATOM     18  N2  UNL     1     156.960 156.998 167.965  0.00  0.00    +0.000 NA
ATOM     19  H10 UNL     1     157.553 156.220 168.211  0.00  0.00    +0.000 HD
BRANCH  18  20
ATOM     20  S1  UNL     1     156.668 157.341 166.354  0.00  0.00    +0.000 S 
ATOM     21  O3  UNL     1     156.014 156.125 165.654  0.00  0.00    +0.000 OA
ATOM     22  O4  UNL     1     157.977 157.498 165.563  0.00  0.00    +0.000 OA
BRANCH  20  23
ATOM     23  C9  UNL     1     155.682 158.732 166.069  0.00  0.00    +0.000 A 
ATOM     24  C10 UNL     1     154.336 158.760 166.260  0.00  0.00    +0.000 A 
ATOM     25  C11 UNL     1     153.526 159.831 165.908  0.00  0.00    +0.000 A 
ATOM     26  C12 UNL     1     154.071 160.973 165.314  0.00  0.00    +0.000 A 
ATOM     27  N3  UNL     1     153.494 162.065 164.871  0.00  0.00    +0.000 NA
ATOM     28  C13 UNL     1     153.901 163.008 164.353  0.00  0.00    +0.000 A 
ATOM     29  C14 UNL     1     153.622 164.351 163.721  0.00  0.00    +0.000 C 
ATOM     30  S2  UNL     1     155.767 162.519 164.311  0.00  0.00    +0.000 S 
ATOM     31  C15 UNL     1     155.438 160.920 165.136  0.00  0.00    +0.000 A 
ATOM     32  C16 UNL     1     156.255 159.873 165.478  0.00  0.00    +0.000 A 
ENDBRANCH  20  23
ENDBRANCH  18  20
ENDBRANCH   1  18
TORSDOF 8
ENDMDL
MODEL 5
REMARK VINA RESULT:      -5.4      2.205      4.324
REMARK  Name = ./3D_structures\o53_MMV303733_3D.pdb
REMARK  12 active torsions:
REMARK  status: ('A' for Active; 'I' for Inactive)
REMARK    1  A    between atoms: C1_1  and  O1_2
REMARK    2  A    between atoms: O1_2  and  C2_3
REMARK    3  A    between atoms: C5_6  and  C6_7
REMARK    4  A    between atoms: C6_7  and  N1_8
REMARK    5  A    between atoms: C7_9  and  C8_11
REMARK    6  A    between atoms: C8_11  and  N2_12
REMARK    7  A    between atoms: C8_11  and  C17_26
REMARK    8  A    between atoms: N2_12  and  S1_13
REMARK    9  A    between atoms: S1_13  and  C9_16
REMARK   10  A    between atoms: C13_21  and  C14_22
REMARK   11  A    between atoms: C17_26  and  C18_27
REMARK   12  A    between atoms: C17_26  and  C19_28
REMARK                            x       y       z     vdW  Elec       q    Type
REMARK                         _______ _______ _______ _____ _____    ______ ____
ROOT
ATOM      1  C8  UNL     1     152.558 161.084 172.199  0.00  0.00    +0.000 C 
ENDROOT
BRANCH   1   3
ATOM      2  N1  UNL     1     154.816 160.135 171.789  0.00  0.00    +0.000 N 
ATOM      3  C7  UNL     1     153.750 160.417 172.720  0.00  0.00    +0.000 C 
ATOM      4  O2  UNL     1     153.935 160.093 173.924  0.00  0.00    +0.000 OA
ATOM      5  H8  UNL     1     154.588 160.401 170.782  0.00  0.00    +0.000 HD
BRANCH   2   6
ATOM      6  C6  UNL     1     156.057 159.563 172.090  0.00  0.00    +0.000 C 
BRANCH   6  10
ATOM      7  C2  UNL     1     158.997 159.612 169.078  0.00  0.00    +0.000 A 
ATOM      8  C3  UNL     1     158.656 158.397 169.636  0.00  0.00    +0.000 A 
ATOM      9  C4  UNL     1     157.706 158.355 170.665  0.00  0.00    +0.000 A 
ATOM     10  C5  UNL     1     157.134 159.509 171.103  0.00  0.00    +0.000 A 
ATOM     11  C20 UNL     1     157.512 160.753 170.512  0.00  0.00    +0.000 A 
ATOM     12  C21 UNL     1     158.423 160.779 169.520  0.00  0.00    +0.000 A 
BRANCH   7  14
ATOM     13  C1  UNL     1     160.838 160.710 167.889  0.00  0.00    +0.000 C 
ATOM     14  O1  UNL     1     159.932 159.625 168.054  0.00  0.00    +0.000 OA
ENDBRANCH   7  14
ENDBRANCH   6  10
ENDBRANCH   2   6
ENDBRANCH   1   3
BRANCH   1  15
ATOM     15  C17 UNL     1     152.343 162.501 172.255  0.00  0.00    +0.000 C 
ATOM     16  C18 UNL     1     152.090 163.173 173.572  0.00  0.00    +0.000 C 
ATOM     17  C19 UNL     1     153.181 163.383 171.324  0.00  0.00    +0.000 C 
ENDBRANCH   1  15
BRANCH   1  18
ATOM     18  N2  UNL     1     151.439 160.167 172.114  0.00  0.00    +0.000 NA
ATOM     19  H10 UNL     1     151.365 159.514 172.878  0.00  0.00    +0.000 HD
BRANCH  18  20
ATOM     20  S1  UNL     1     150.988 159.695 170.574  0.00  0.00    +0.000 S 
ATOM     21  O3  UNL     1     150.248 160.847 169.852  0.00  0.00    +0.000 OA
ATOM     22  O4  UNL     1     149.912 158.598 170.611  0.00  0.00    +0.000 OA
BRANCH  20  23
ATOM     23  C9  UNL     1     152.285 159.162 169.563  0.00  0.00    +0.000 A 
ATOM     24  C10 UNL     1     152.859 157.933 169.650  0.00  0.00    +0.000 A 
ATOM     25  C11 UNL     1     153.984 157.549 168.932  0.00  0.00    +0.000 A 
ATOM     26  C12 UNL     1     154.607 158.442 168.054  0.00  0.00    +0.000 A 
ATOM     27  N3  UNL     1     155.685 158.305 167.319  0.00  0.00    +0.000 NA
ATOM     28  C13 UNL     1     156.244 159.020 166.611  0.00  0.00    +0.000 A 
ATOM     29  C14 UNL     1     157.410 159.261 165.682  0.00  0.00    +0.000 C 
ATOM     30  S2  UNL     1     155.098 160.560 166.810  0.00  0.00    +0.000 S 
ATOM     31  C15 UNL     1     154.002 159.679 167.981  0.00  0.00    +0.000 A 
ATOM     32  C16 UNL     1     152.891 160.075 168.680  0.00  0.00    +0.000 A 
ENDBRANCH  20  23
ENDBRANCH  18  20
ENDBRANCH   1  18
TORSDOF 8
ENDMDL
MODEL 6
REMARK VINA RESULT:      -5.4      2.312      3.265
REMARK  Name = ./3D_structures\o53_MMV303733_3D.pdb
REMARK  12 active torsions:
REMARK  status: ('A' for Active; 'I' for Inactive)
REMARK    1  A    between atoms: C1_1  and  O1_2
REMARK    2  A    between atoms: O1_2  and  C2_3
REMARK    3  A    between atoms: C5_6  and  C6_7
REMARK    4  A    between atoms: C6_7  and  N1_8
REMARK    5  A    between atoms: C7_9  and  C8_11
REMARK    6  A    between atoms: C8_11  and  N2_12
REMARK    7  A    between atoms: C8_11  and  C17_26
REMARK    8  A    between atoms: N2_12  and  S1_13
REMARK    9  A    between atoms: S1_13  and  C9_16
REMARK   10  A    between atoms: C13_21  and  C14_22
REMARK   11  A    between atoms: C17_26  and  C18_27
REMARK   12  A    between atoms: C17_26  and  C19_28
REMARK                            x       y       z     vdW  Elec       q    Type
REMARK                         _______ _______ _______ _____ _____    ______ ____
ROOT
ATOM      1  C8  UNL     1     153.755 158.875 169.637  0.00  0.00    +0.000 C 
ENDROOT
BRANCH   1   3
ATOM      2  N1  UNL     1     154.451 157.939 167.444  0.00  0.00    +0.000 N 
ATOM      3  C7  UNL     1     154.288 159.094 168.293  0.00  0.00    +0.000 C 
ATOM      4  O2  UNL     1     154.590 160.216 167.804  0.00  0.00    +0.000 OA
ATOM      5  H8  UNL     1     154.210 157.017 167.923  0.00  0.00    +0.000 HD
BRANCH   2   6
ATOM      6  C6  UNL     1     154.883 157.936 166.114  0.00  0.00    +0.000 C 
BRANCH   6  10
ATOM      7  C2  UNL     1     158.791 157.063 164.816  0.00  0.00    +0.000 A 
ATOM      8  C3  UNL     1     158.074 156.064 165.441  0.00  0.00    +0.000 A 
ATOM      9  C4  UNL     1     156.784 156.336 165.914  0.00  0.00    +0.000 A 
ATOM     10  C5  UNL     1     156.256 157.579 165.756  0.00  0.00    +0.000 A 
ATOM     11  C20 UNL     1     157.024 158.596 165.111  0.00  0.00    +0.000 A 
ATOM     12  C21 UNL     1     158.262 158.320 164.656  0.00  0.00    +0.000 A 
BRANCH   7  14
ATOM     13  C1  UNL     1     160.742 157.628 163.442  0.00  0.00    +0.000 C 
ATOM     14  O1  UNL     1     160.062 156.764 164.346  0.00  0.00    +0.000 OA
ENDBRANCH   7  14
ENDBRANCH   6  10
ENDBRANCH   2   6
ENDBRANCH   1   3
BRANCH   1  15
ATOM     15  C17 UNL     1     152.355 158.872 169.953  0.00  0.00    +0.000 C 
ATOM     16  C18 UNL     1     151.618 157.573 170.098  0.00  0.00    +0.000 C 
ATOM     17  C19 UNL     1     151.851 159.919 170.951  0.00  0.00    +0.000 C 
ENDBRANCH   1  15
BRANCH   1  18
ATOM     18  N2  UNL     1     154.743 159.183 170.651  0.00  0.00    +0.000 NA
ATOM     19  H10 UNL     1     154.813 160.159 170.893  0.00  0.00    +0.000 HD
BRANCH  18  20
ATOM     20  S1  UNL     1     156.115 158.226 170.656  0.00  0.00    +0.000 S 
ATOM     21  O3  UNL     1     155.780 156.801 170.152  0.00  0.00    +0.000 OA
ATOM     22  O4  UNL     1     156.606 157.951 172.087  0.00  0.00    +0.000 OA
BRANCH  20  23
ATOM     23  C9  UNL     1     157.438 158.838 169.727  0.00  0.00    +0.000 A 
ATOM     24  C10 UNL     1     158.189 158.080 168.884  0.00  0.00    +0.000 A 
ATOM     25  C11 UNL     1     159.330 158.536 168.239  0.00  0.00    +0.000 A 
ATOM     26  C12 UNL     1     159.783 159.845 168.434  0.00  0.00    +0.000 A 
ATOM     27  N3  UNL     1     160.842 160.461 167.965  0.00  0.00    +0.000 NA
ATOM     28  C13 UNL     1     161.264 161.520 168.124  0.00  0.00    +0.000 A 
ATOM     29  C14 UNL     1     162.347 162.531 167.832  0.00  0.00    +0.000 C 
ATOM     30  S2  UNL     1     159.913 162.179 169.333  0.00  0.00    +0.000 S 
ATOM     31  C15 UNL     1     159.002 160.593 169.289  0.00  0.00    +0.000 A 
ATOM     32  C16 UNL     1     157.871 160.161 169.933  0.00  0.00    +0.000 A 
ENDBRANCH  20  23
ENDBRANCH  18  20
ENDBRANCH   1  18
TORSDOF 8
ENDMDL
MODEL 7
REMARK VINA RESULT:      -5.3      2.923      4.279
REMARK  Name = ./3D_structures\o53_MMV303733_3D.pdb
REMARK  12 active torsions:
REMARK  status: ('A' for Active; 'I' for Inactive)
REMARK    1  A    between atoms: C1_1  and  O1_2
REMARK    2  A    between atoms: O1_2  and  C2_3
REMARK    3  A    between atoms: C5_6  and  C6_7
REMARK    4  A    between atoms: C6_7  and  N1_8
REMARK    5  A    between atoms: C7_9  and  C8_11
REMARK    6  A    between atoms: C8_11  and  N2_12
REMARK    7  A    between atoms: C8_11  and  C17_26
REMARK    8  A    between atoms: N2_12  and  S1_13
REMARK    9  A    between atoms: S1_13  and  C9_16
REMARK   10  A    between atoms: C13_21  and  C14_22
REMARK   11  A    between atoms: C17_26  and  C18_27
REMARK   12  A    between atoms: C17_26  and  C19_28
REMARK                            x       y       z     vdW  Elec       q    Type
REMARK                         _______ _______ _______ _____ _____    ______ ____
ROOT
ATOM      1  C8  UNL     1     155.831 160.192 171.444  0.00  0.00    +0.000 C 
ENDROOT
BRANCH   1   3
ATOM      2  N1  UNL     1     153.897 159.539 170.028  0.00  0.00    +0.000 N 
ATOM      3  C7  UNL     1     154.533 160.530 170.862  0.00  0.00    +0.000 C 
ATOM      4  O2  UNL     1     153.909 161.609 171.053  0.00  0.00    +0.000 OA
ATOM      5  H8  UNL     1     154.487 158.664 169.877  0.00  0.00    +0.000 HD
BRANCH   2   6
ATOM      6  C6  UNL     1     152.637 159.636 169.429  0.00  0.00    +0.000 C 
BRANCH   6  10
ATOM      7  C2  UNL     1     152.456 161.288 165.562  0.00  0.00    +0.000 A 
ATOM      8  C3  UNL     1     151.599 161.784 166.523  0.00  0.00    +0.000 A 
ATOM      9  C4  UNL     1     151.613 161.230 167.809  0.00  0.00    +0.000 A 
ATOM     10  C5  UNL     1     152.466 160.209 168.095  0.00  0.00    +0.000 A 
ATOM     11  C20 UNL     1     153.337 159.711 167.078  0.00  0.00    +0.000 A 
ATOM     12  C21 UNL     1     153.317 160.257 165.846  0.00  0.00    +0.000 A 
BRANCH   7  14
ATOM     13  C1  UNL     1     152.129 163.242 164.117  0.00  0.00    +0.000 C 
ATOM     14  O1  UNL     1     152.430 161.862 164.299  0.00  0.00    +0.000 OA
ENDBRANCH   7  14
ENDBRANCH   6  10
ENDBRANCH   2   6
ENDBRANCH   1   3
BRANCH   1  15
ATOM     15  C17 UNL     1     156.215 160.513 172.789  0.00  0.00    +0.000 C 
ATOM     16  C18 UNL     1     156.795 161.859 173.106  0.00  0.00    +0.000 C 
ATOM     17  C19 UNL     1     155.318 160.005 173.923  0.00  0.00    +0.000 C 
ENDBRANCH   1  15
BRANCH   1  18
ATOM     18  N2  UNL     1     156.832 159.992 170.415  0.00  0.00    +0.000 NA
ATOM     19  H10 UNL     1     156.812 160.667 169.667  0.00  0.00    +0.000 HD
BRANCH  18  20
ATOM     20  S1  UNL     1     157.248 158.405 170.090  0.00  0.00    +0.000 S 
ATOM     21  O3  UNL     1     156.342 157.437 170.889  0.00  0.00    +0.000 OA
ATOM     22  O4  UNL     1     158.642 158.063 170.639  0.00  0.00    +0.000 OA
BRANCH  20  23
ATOM     23  C9  UNL     1     157.187 157.960 168.421  0.00  0.00    +0.000 A 
ATOM     24  C10 UNL     1     156.068 157.505 167.797  0.00  0.00    +0.000 A 
ATOM     25  C11 UNL     1     156.048 157.023 166.495  0.00  0.00    +0.000 A 
ATOM     26  C12 UNL     1     157.221 156.977 165.734  0.00  0.00    +0.000 A 
ATOM     27  N3  UNL     1     157.434 156.529 164.520  0.00  0.00    +0.000 NA
ATOM     28  C13 UNL     1     158.383 156.446 163.873  0.00  0.00    +0.000 A 
ATOM     29  C14 UNL     1     159.020 156.021 162.572  0.00  0.00    +0.000 C 
ATOM     30  S2  UNL     1     159.643 157.187 165.133  0.00  0.00    +0.000 S 
ATOM     31  C15 UNL     1     158.339 157.448 166.389  0.00  0.00    +0.000 A 
ATOM     32  C16 UNL     1     158.379 157.929 167.673  0.00  0.00    +0.000 A 
ENDBRANCH  20  23
ENDBRANCH  18  20
ENDBRANCH   1  18
TORSDOF 8
ENDMDL
MODEL 8
REMARK VINA RESULT:      -5.3      2.204      3.943
REMARK  Name = ./3D_structures\o53_MMV303733_3D.pdb
REMARK  12 active torsions:
REMARK  status: ('A' for Active; 'I' for Inactive)
REMARK    1  A    between atoms: C1_1  and  O1_2
REMARK    2  A    between atoms: O1_2  and  C2_3
REMARK    3  A    between atoms: C5_6  and  C6_7
REMARK    4  A    between atoms: C6_7  and  N1_8
REMARK    5  A    between atoms: C7_9  and  C8_11
REMARK    6  A    between atoms: C8_11  and  N2_12
REMARK    7  A    between atoms: C8_11  and  C17_26
REMARK    8  A    between atoms: N2_12  and  S1_13
REMARK    9  A    between atoms: S1_13  and  C9_16
REMARK   10  A    between atoms: C13_21  and  C14_22
REMARK   11  A    between atoms: C17_26  and  C18_27
REMARK   12  A    between atoms: C17_26  and  C19_28
REMARK                            x       y       z     vdW  Elec       q    Type
REMARK                         _______ _______ _______ _____ _____    ______ ____
ROOT
ATOM      1  C8  UNL     1     155.841 160.221 171.838  0.00  0.00    +0.000 C 
ENDROOT
BRANCH   1   3
ATOM      2  N1  UNL     1     157.519 159.296 170.257  0.00  0.00    +0.000 N 
ATOM      3  C7  UNL     1     156.658 159.092 171.397  0.00  0.00    +0.000 C 
ATOM      4  O2  UNL     1     156.693 157.960 171.950  0.00  0.00    +0.000 OA
ATOM      5  H8  UNL     1     157.420 160.261 169.813  0.00  0.00    +0.000 HD
BRANCH   2   6
ATOM      6  C6  UNL     1     158.418 158.373 169.715  0.00  0.00    +0.000 C 
BRANCH   6  10
ATOM      7  C2  UNL     1     158.117 156.854 165.801  0.00  0.00    +0.000 A 
ATOM      8  C3  UNL     1     159.091 157.795 166.061  0.00  0.00    +0.000 A 
ATOM      9  C4  UNL     1     159.192 158.344 167.346  0.00  0.00    +0.000 A 
ATOM     10  C5  UNL     1     158.329 157.946 168.319  0.00  0.00    +0.000 A 
ATOM     11  C20 UNL     1     157.326 156.975 168.019  0.00  0.00    +0.000 A 
ATOM     12  C21 UNL     1     157.243 156.452 166.780  0.00  0.00    +0.000 A 
BRANCH   7  14
ATOM     13  C1  UNL     1     157.999 154.912 164.309  0.00  0.00    +0.000 C 
ATOM     14  O1  UNL     1     158.046 156.318 164.523  0.00  0.00    +0.000 OA
ENDBRANCH   7  14
ENDBRANCH   6  10
ENDBRANCH   2   6
ENDBRANCH   1   3
BRANCH   1  15
ATOM     15  C17 UNL     1     156.358 161.355 172.551  0.00  0.00    +0.000 C 
ATOM     16  C18 UNL     1     156.720 162.609 171.812  0.00  0.00    +0.000 C 
ATOM     17  C19 UNL     1     155.755 161.664 173.924  0.00  0.00    +0.000 C 
ENDBRANCH   1  15
BRANCH   1  18
ATOM     18  N2  UNL     1     154.446 159.848 171.952  0.00  0.00    +0.000 NA
ATOM     19  H10 UNL     1     154.282 158.931 172.337  0.00  0.00    +0.000 HD
BRANCH  18  20
ATOM     20  S1  UNL     1     153.424 160.448 170.771  0.00  0.00    +0.000 S 
ATOM     21  O3  UNL     1     153.284 161.983 170.909  0.00  0.00    +0.000 OA
ATOM     22  O4  UNL     1     151.976 159.975 170.984  0.00  0.00    +0.000 OA
BRANCH  20  23
ATOM     23  C9  UNL     1     153.889 160.084 169.146  0.00  0.00    +0.000 A 
ATOM     24  C10 UNL     1     153.575 158.926 168.508  0.00  0.00    +0.000 A 
ATOM     25  C11 UNL     1     154.057 158.576 167.254  0.00  0.00    +0.000 A 
ATOM     26  C12 UNL     1     154.924 159.427 166.562  0.00  0.00    +0.000 A 
ATOM     27  N3  UNL     1     155.523 159.279 165.403  0.00  0.00    +0.000 NA
ATOM     28  C13 UNL     1     156.262 159.938 164.816  0.00  0.00    +0.000 A 
ATOM     29  C14 UNL     1     157.125 160.127 163.592  0.00  0.00    +0.000 C 
ATOM     30  S2  UNL     1     156.387 161.400 166.069  0.00  0.00    +0.000 S 
ATOM     31  C15 UNL     1     155.223 160.596 167.229  0.00  0.00    +0.000 A 
ATOM     32  C16 UNL     1     154.755 160.960 168.466  0.00  0.00    +0.000 A 
ENDBRANCH  20  23
ENDBRANCH  18  20
ENDBRANCH   1  18
TORSDOF 8
ENDMDL
MODEL 9
REMARK VINA RESULT:      -5.3      4.877      6.535
REMARK  Name = ./3D_structures\o53_MMV303733_3D.pdb
REMARK  12 active torsions:
REMARK  status: ('A' for Active; 'I' for Inactive)
REMARK    1  A    between atoms: C1_1  and  O1_2
REMARK    2  A    between atoms: O1_2  and  C2_3
REMARK    3  A    between atoms: C5_6  and  C6_7
REMARK    4  A    between atoms: C6_7  and  N1_8
REMARK    5  A    between atoms: C7_9  and  C8_11
REMARK    6  A    between atoms: C8_11  and  N2_12
REMARK    7  A    between atoms: C8_11  and  C17_26
REMARK    8  A    between atoms: N2_12  and  S1_13
REMARK    9  A    between atoms: S1_13  and  C9_16
REMARK   10  A    between atoms: C13_21  and  C14_22
REMARK   11  A    between atoms: C17_26  and  C18_27
REMARK   12  A    between atoms: C17_26  and  C19_28
REMARK                            x       y       z     vdW  Elec       q    Type
REMARK                         _______ _______ _______ _____ _____    ______ ____
ROOT
ATOM      1  C8  UNL     1     150.330 163.154 169.894  0.00  0.00    +0.000 C 
ENDROOT
BRANCH   1   3
ATOM      2  N1  UNL     1     150.947 160.750 169.790  0.00  0.00    +0.000 N 
ATOM      3  C7  UNL     1     151.213 162.067 170.315  0.00  0.00    +0.000 C 
ATOM      4  O2  UNL     1     152.207 162.193 171.079  0.00  0.00    +0.000 OA
ATOM      5  H8  UNL     1     150.075 160.701 169.177  0.00  0.00    +0.000 HD
BRANCH   2   6
ATOM      6  C6  UNL     1     151.700 159.594 170.016  0.00  0.00    +0.000 C 
BRANCH   6  10
ATOM      7  C2  UNL     1     154.424 158.366 167.051  0.00  0.00    +0.000 A 
ATOM      8  C3  UNL     1     154.318 157.602 168.194  0.00  0.00    +0.000 A 
ATOM      9  C4  UNL     1     153.445 158.006 169.213  0.00  0.00    +0.000 A 
ATOM     10  C5  UNL     1     152.717 159.145 169.065  0.00  0.00    +0.000 A 
ATOM     11  C20 UNL     1     152.853 159.920 167.873  0.00  0.00    +0.000 A 
ATOM     12  C21 UNL     1     153.692 159.518 166.899  0.00  0.00    +0.000 A 
BRANCH   7  14
ATOM     13  C1  UNL     1     156.279 156.947 166.303  0.00  0.00    +0.000 C 
ATOM     14  O1  UNL     1     155.288 157.938 166.053  0.00  0.00    +0.000 OA
ENDBRANCH   7  14
ENDBRANCH   6  10
ENDBRANCH   2   6
ENDBRANCH   1   3
BRANCH   1  15
ATOM     15  C17 UNL     1     150.501 164.524 170.286  0.00  0.00    +0.000 C 
ATOM     16  C18 UNL     1     151.559 165.366 169.638  0.00  0.00    +0.000 C 
ATOM     17  C19 UNL     1     149.239 165.338 170.588  0.00  0.00    +0.000 C 
ENDBRANCH   1  15
BRANCH   1  18
ATOM     18  N2  UNL     1     149.027 162.651 169.506  0.00  0.00    +0.000 NA
ATOM     19  H10 UNL     1     148.744 161.801 169.969  0.00  0.00    +0.000 HD
BRANCH  18  20
ATOM     20  S1  UNL     1     148.578 162.919 167.917  0.00  0.00    +0.000 S 
ATOM     21  O3  UNL     1     147.312 163.808 167.858  0.00  0.00    +0.000 OA
ATOM     22  O4  UNL     1     148.092 161.627 167.241  0.00  0.00    +0.000 OA
BRANCH  20  23
ATOM     23  C9  UNL     1     149.797 163.637 166.923  0.00  0.00    +0.000 A 
ATOM     24  C10 UNL     1     149.701 164.882 166.385  0.00  0.00    +0.000 A 
ATOM     25  C11 UNL     1     150.615 165.408 165.482  0.00  0.00    +0.000 A 
ATOM     26  C12 UNL     1     151.717 164.656 165.063  0.00  0.00    +0.000 A 
ATOM     27  N3  UNL     1     152.665 164.936 164.200  0.00  0.00    +0.000 NA
ATOM     28  C13 UNL     1     153.566 164.338 163.808  0.00  0.00    +0.000 A 
ATOM     29  C14 UNL     1     154.768 164.270 162.896  0.00  0.00    +0.000 C 
ATOM     30  S2  UNL     1     153.288 162.720 164.822  0.00  0.00    +0.000 S 
ATOM     31  C15 UNL     1     151.792 163.400 165.627  0.00  0.00    +0.000 A 
ATOM     32  C16 UNL     1     150.901 162.863 166.521  0.00  0.00    +0.000 A 
ENDBRANCH  20  23
ENDBRANCH  18  20
ENDBRANCH   1  18
TORSDOF 8
ENDMDL
