MODEL 1
REMARK VINA RESULT:      -6.1      0.000      0.000
REMARK  Name = ./3D_structures\o55_MMV001438_3D.pdb
REMARK  7 active torsions:
REMARK  status: ('A' for Active; 'I' for Inactive)
REMARK    1  A    between atoms: C1_1  and  C2_2
REMARK    2  A    between atoms: C3_3  and  O1_4
REMARK    3  A    between atoms: O1_4  and  C4_5
REMARK    4  A    between atoms: C4_5  and  C5_6
REMARK    5  A    between atoms: C8_13  and  C9_14
REMARK    6  A    between atoms: C9_14  and  S1_15
REMARK    7  A    between atoms: S1_15  and  C10_17
REMARK                            x       y       z     vdW  Elec       q    Type
REMARK                         _______ _______ _______ _____ _____    ______ ____
ROOT
ATOM      1  C1  UNL     1     158.958 158.276 168.188  0.00  0.00    +0.000 C 
ATOM      2  C2  UNL     1     157.731 157.988 167.466  0.00  0.00    +0.000 A 
ATOM      3  C3  UNL     1     156.526 158.507 167.978  0.00  0.00    +0.000 A 
ATOM      4  C6  UNL     1     155.357 158.237 167.301  0.00  0.00    +0.000 A 
ATOM      5  C7  UNL     1     155.377 157.487 166.165  0.00  0.00    +0.000 A 
ATOM      6  N1  UNL     1     156.540 157.010 165.707  0.00  0.00    +0.000 NA
ATOM      7  C8  UNL     1     157.706 157.246 166.335  0.00  0.00    +0.000 A 
ENDROOT
BRANCH   3   8
ATOM      8  O1  UNL     1     156.560 159.240 169.105  0.00  0.00    +0.000 OA
BRANCH   8   9
ATOM      9  C4  UNL     1     156.076 159.285 170.359  0.00  0.00    +0.000 C 
BRANCH   9  10
ATOM     10  C5  UNL     1     156.618 158.352 171.395  0.00  0.00    +0.000 C 
ATOM     11  F1  UNL     1     158.010 158.294 171.252  0.00  0.00    +0.000 F 
ATOM     12  F2  UNL     1     156.228 158.602 172.669  0.00  0.00    +0.000 F 
ATOM     13  F3  UNL     1     156.191 157.032 171.111  0.00  0.00    +0.000 F 
ENDBRANCH   9  10
ENDBRANCH   8   9
ENDBRANCH   3   8
BRANCH   7  14
ATOM     14  C9  UNL     1     158.935 156.683 165.760  0.00  0.00    +0.000 C 
BRANCH  14  15
ATOM     15  S1  UNL     1     158.623 156.024 164.130  0.00  0.00    +0.000 S 
ATOM     16  O2  UNL     1     159.889 156.171 163.296  0.00  0.00    +0.000 OA
BRANCH  15  17
ATOM     17  C10 UNL     1     158.273 154.285 164.232  0.00  0.00    +0.000 A 
ATOM     18  N2  UNL     1     159.096 153.341 164.712  0.00  0.00    +0.000 NA
ATOM     19  C11 UNL     1     158.478 152.129 164.627  0.00  0.00    +0.000 A 
ATOM     20  C12 UNL     1     158.871 150.846 164.975  0.00  0.00    +0.000 A 
ATOM     21  C13 UNL     1     158.038 149.765 164.782  0.00  0.00    +0.000 A 
ATOM     22  C14 UNL     1     156.796 150.020 164.227  0.00  0.00    +0.000 A 
ATOM     23  C15 UNL     1     156.376 151.282 163.869  0.00  0.00    +0.000 A 
ATOM     24  C16 UNL     1     157.233 152.340 164.077  0.00  0.00    +0.000 A 
ATOM     25  N3  UNL     1     157.152 153.670 163.851  0.00  0.00    +0.000 N 
ATOM     26  H14 UNL     1     156.300 154.124 163.430  0.00  0.00    +0.000 HD
ENDBRANCH  15  17
ENDBRANCH  14  15
ENDBRANCH   7  14
TORSDOF 6
ENDMDL
MODEL 2
REMARK VINA RESULT:      -6.1     13.003     14.876
REMARK  Name = ./3D_structures\o55_MMV001438_3D.pdb
REMARK  7 active torsions:
REMARK  status: ('A' for Active; 'I' for Inactive)
REMARK    1  A    between atoms: C1_1  and  C2_2
REMARK    2  A    between atoms: C3_3  and  O1_4
REMARK    3  A    between atoms: O1_4  and  C4_5
REMARK    4  A    between atoms: C4_5  and  C5_6
REMARK    5  A    between atoms: C8_13  and  C9_14
REMARK    6  A    between atoms: C9_14  and  S1_15
REMARK    7  A    between atoms: S1_15  and  C10_17
REMARK                            x       y       z     vdW  Elec       q    Type
REMARK                         _______ _______ _______ _____ _____    ______ ____
ROOT
ATOM      1  C1  UNL     1     143.681 163.039 167.512  0.00  0.00    +0.000 C 
ATOM      2  C2  UNL     1     143.992 162.563 166.175  0.00  0.00    +0.000 A 
ATOM      3  C3  UNL     1     143.940 163.490 165.115  0.00  0.00    +0.000 A 
ATOM      4  C6  UNL     1     144.232 163.046 163.844  0.00  0.00    +0.000 A 
ATOM      5  C7  UNL     1     144.564 161.744 163.628  0.00  0.00    +0.000 A 
ATOM      6  N1  UNL     1     144.604 160.892 164.659  0.00  0.00    +0.000 NA
ATOM      7  C8  UNL     1     144.325 161.278 165.917  0.00  0.00    +0.000 A 
ENDROOT
BRANCH   3   8
ATOM      8  O1  UNL     1     143.605 164.764 165.381  0.00  0.00    +0.000 OA
BRANCH   8   9
ATOM      9  C4  UNL     1     144.137 165.974 165.631  0.00  0.00    +0.000 C 
BRANCH   9  10
ATOM     10  C5  UNL     1     145.546 166.075 166.123  0.00  0.00    +0.000 C 
ATOM     11  F1  UNL     1     146.058 167.322 165.741  0.00  0.00    +0.000 F 
ATOM     12  F2  UNL     1     145.726 165.810 167.440  0.00  0.00    +0.000 F 
ATOM     13  F3  UNL     1     146.356 165.146 165.427  0.00  0.00    +0.000 F 
ENDBRANCH   9  10
ENDBRANCH   8   9
ENDBRANCH   3   8
BRANCH   7  14
ATOM     14  C9  UNL     1     144.395 160.274 166.987  0.00  0.00    +0.000 C 
BRANCH  14  15
ATOM     15  S1  UNL     1     146.090 159.987 167.471  0.00  0.00    +0.000 S 
ATOM     16  O2  UNL     1     146.851 159.433 166.273  0.00  0.00    +0.000 OA
BRANCH  15  17
ATOM     17  C10 UNL     1     146.867 161.524 167.909  0.00  0.00    +0.000 A 
ATOM     18  N2  UNL     1     146.767 162.151 169.090  0.00  0.00    +0.000 NA
ATOM     19  C11 UNL     1     147.501 163.299 169.046  0.00  0.00    +0.000 A 
ATOM     20  C12 UNL     1     147.739 164.299 169.975  0.00  0.00    +0.000 A 
ATOM     21  C13 UNL     1     148.540 165.381 169.675  0.00  0.00    +0.000 A 
ATOM     22  C14 UNL     1     149.092 165.419 168.407  0.00  0.00    +0.000 A 
ATOM     23  C15 UNL     1     148.876 164.442 167.460  0.00  0.00    +0.000 A 
ATOM     24  C16 UNL     1     148.071 163.375 167.795  0.00  0.00    +0.000 A 
ATOM     25  N3  UNL     1     147.656 162.271 167.135  0.00  0.00    +0.000 N 
ATOM     26  H14 UNL     1     147.939 162.063 166.142  0.00  0.00    +0.000 HD
ENDBRANCH  15  17
ENDBRANCH  14  15
ENDBRANCH   7  14
TORSDOF 6
ENDMDL
MODEL 3
REMARK VINA RESULT:      -6.0     13.169     15.013
REMARK  Name = ./3D_structures\o55_MMV001438_3D.pdb
REMARK  7 active torsions:
REMARK  status: ('A' for Active; 'I' for Inactive)
REMARK    1  A    between atoms: C1_1  and  C2_2
REMARK    2  A    between atoms: C3_3  and  O1_4
REMARK    3  A    between atoms: O1_4  and  C4_5
REMARK    4  A    between atoms: C4_5  and  C5_6
REMARK    5  A    between atoms: C8_13  and  C9_14
REMARK    6  A    between atoms: C9_14  and  S1_15
REMARK    7  A    between atoms: S1_15  and  C10_17
REMARK                            x       y       z     vdW  Elec       q    Type
REMARK                         _______ _______ _______ _____ _____    ______ ____
ROOT
ATOM      1  C1  UNL     1     160.231 143.776 168.466  0.00  0.00    +0.000 C 
ATOM      2  C2  UNL     1     161.365 142.869 168.445  0.00  0.00    +0.000 A 
ATOM      3  C3  UNL     1     162.008 142.587 169.666  0.00  0.00    +0.000 A 
ATOM      4  C6  UNL     1     163.085 141.727 169.656  0.00  0.00    +0.000 A 
ATOM      5  C7  UNL     1     163.508 141.169 168.489  0.00  0.00    +0.000 A 
ATOM      6  N1  UNL     1     162.874 141.459 167.347  0.00  0.00    +0.000 NA
ATOM      7  C8  UNL     1     161.819 142.293 167.308  0.00  0.00    +0.000 A 
ENDROOT
BRANCH   3   8
ATOM      8  O1  UNL     1     161.552 143.165 170.791  0.00  0.00    +0.000 OA
BRANCH   8   9
ATOM      9  C4  UNL     1     161.950 143.898 171.847  0.00  0.00    +0.000 C 
BRANCH   9  10
ATOM     10  C5  UNL     1     161.207 145.145 172.205  0.00  0.00    +0.000 C 
ATOM     11  F1  UNL     1     162.064 146.238 172.019  0.00  0.00    +0.000 F 
ATOM     12  F2  UNL     1     160.007 145.306 171.596  0.00  0.00    +0.000 F 
ATOM     13  F3  UNL     1     160.941 145.153 173.595  0.00  0.00    +0.000 F 
ENDBRANCH   9  10
ENDBRANCH   8   9
ENDBRANCH   3   8
BRANCH   7  14
ATOM     14  C9  UNL     1     161.183 142.554 166.010  0.00  0.00    +0.000 C 
BRANCH  14  15
ATOM     15  S1  UNL     1     160.789 141.021 165.183  0.00  0.00    +0.000 S 
ATOM     16  O2  UNL     1     159.603 141.259 164.256  0.00  0.00    +0.000 OA
BRANCH  15  17
ATOM     17  C10 UNL     1     162.150 140.515 164.157  0.00  0.00    +0.000 A 
ATOM     18  N2  UNL     1     162.070 139.742 163.065  0.00  0.00    +0.000 NA
ATOM     19  C11 UNL     1     163.320 139.574 162.548  0.00  0.00    +0.000 A 
ATOM     20  C12 UNL     1     163.798 138.880 161.447  0.00  0.00    +0.000 A 
ATOM     21  C13 UNL     1     165.140 138.869 161.134  0.00  0.00    +0.000 A 
ATOM     22  C14 UNL     1     165.985 139.581 161.968  0.00  0.00    +0.000 A 
ATOM     23  C15 UNL     1     165.543 140.280 163.070  0.00  0.00    +0.000 A 
ATOM     24  C16 UNL     1     164.195 140.270 163.352  0.00  0.00    +0.000 A 
ATOM     25  N3  UNL     1     163.436 140.828 164.322  0.00  0.00    +0.000 N 
ATOM     26  H14 UNL     1     163.843 141.425 165.088  0.00  0.00    +0.000 HD
ENDBRANCH  15  17
ENDBRANCH  14  15
ENDBRANCH   7  14
TORSDOF 6
ENDMDL
MODEL 4
REMARK VINA RESULT:      -5.8      5.228      6.986
REMARK  Name = ./3D_structures\o55_MMV001438_3D.pdb
REMARK  7 active torsions:
REMARK  status: ('A' for Active; 'I' for Inactive)
REMARK    1  A    between atoms: C1_1  and  C2_2
REMARK    2  A    between atoms: C3_3  and  O1_4
REMARK    3  A    between atoms: O1_4  and  C4_5
REMARK    4  A    between atoms: C4_5  and  C5_6
REMARK    5  A    between atoms: C8_13  and  C9_14
REMARK    6  A    between atoms: C9_14  and  S1_15
REMARK    7  A    between atoms: S1_15  and  C10_17
REMARK                            x       y       z     vdW  Elec       q    Type
REMARK                         _______ _______ _______ _____ _____    ______ ____
ROOT
ATOM      1  C1  UNL     1     156.501 157.694 171.276  0.00  0.00    +0.000 C 
ATOM      2  C2  UNL     1     156.927 158.947 170.679  0.00  0.00    +0.000 A 
ATOM      3  C3  UNL     1     156.913 160.102 171.485  0.00  0.00    +0.000 A 
ATOM      4  C6  UNL     1     157.315 161.296 170.926  0.00  0.00    +0.000 A 
ATOM      5  C7  UNL     1     157.715 161.346 169.626  0.00  0.00    +0.000 A 
ATOM      6  N1  UNL     1     157.717 160.229 168.889  0.00  0.00    +0.000 NA
ATOM      7  C8  UNL     1     157.332 159.042 169.391  0.00  0.00    +0.000 A 
ENDROOT
BRANCH   3   8
ATOM      8  O1  UNL     1     156.507 159.999 172.762  0.00  0.00    +0.000 OA
BRANCH   8   9
ATOM      9  C4  UNL     1     155.401 159.973 173.528  0.00  0.00    +0.000 C 
BRANCH   9  10
ATOM     10  C5  UNL     1     154.105 160.472 172.973  0.00  0.00    +0.000 C 
ATOM     11  F1  UNL     1     153.101 160.244 173.924  0.00  0.00    +0.000 F 
ATOM     12  F2  UNL     1     154.118 161.747 172.514  0.00  0.00    +0.000 F 
ATOM     13  F3  UNL     1     153.721 159.667 171.873  0.00  0.00    +0.000 F 
ENDBRANCH   9  10
ENDBRANCH   8   9
ENDBRANCH   3   8
BRANCH   7  14
ATOM     14  C9  UNL     1     157.365 157.868 168.510  0.00  0.00    +0.000 C 
BRANCH  14  15
ATOM     15  S1  UNL     1     156.036 157.936 167.319  0.00  0.00    +0.000 S 
ATOM     16  O2  UNL     1     155.950 156.591 166.608  0.00  0.00    +0.000 OA
BRANCH  15  17
ATOM     17  C10 UNL     1     154.484 158.178 168.152  0.00  0.00    +0.000 A 
ATOM     18  N2  UNL     1     153.739 159.292 168.124  0.00  0.00    +0.000 NA
ATOM     19  C11 UNL     1     152.622 159.097 168.881  0.00  0.00    +0.000 A 
ATOM     20  C12 UNL     1     151.540 159.907 169.187  0.00  0.00    +0.000 A 
ATOM     21  C13 UNL     1     150.516 159.461 169.996  0.00  0.00    +0.000 A 
ATOM     22  C14 UNL     1     150.620 158.170 170.485  0.00  0.00    +0.000 A 
ATOM     23  C15 UNL     1     151.683 157.340 170.201  0.00  0.00    +0.000 A 
ATOM     24  C16 UNL     1     152.687 157.819 169.389  0.00  0.00    +0.000 A 
ATOM     25  N3  UNL     1     153.841 157.295 168.918  0.00  0.00    +0.000 N 
ATOM     26  H14 UNL     1     154.156 156.317 169.148  0.00  0.00    +0.000 HD
ENDBRANCH  15  17
ENDBRANCH  14  15
ENDBRANCH   7  14
TORSDOF 6
ENDMDL
MODEL 5
REMARK VINA RESULT:      -5.7      4.798      6.284
REMARK  Name = ./3D_structures\o55_MMV001438_3D.pdb
REMARK  7 active torsions:
REMARK  status: ('A' for Active; 'I' for Inactive)
REMARK    1  A    between atoms: C1_1  and  C2_2
REMARK    2  A    between atoms: C3_3  and  O1_4
REMARK    3  A    between atoms: O1_4  and  C4_5
REMARK    4  A    between atoms: C4_5  and  C5_6
REMARK    5  A    between atoms: C8_13  and  C9_14
REMARK    6  A    between atoms: C9_14  and  S1_15
REMARK    7  A    between atoms: S1_15  and  C10_17
REMARK                            x       y       z     vdW  Elec       q    Type
REMARK                         _______ _______ _______ _____ _____    ______ ____
ROOT
ATOM      1  C1  UNL     1     156.201 161.657 168.725  0.00  0.00    +0.000 C 
ATOM      2  C2  UNL     1     155.200 160.622 168.909  0.00  0.00    +0.000 A 
ATOM      3  C3  UNL     1     154.343 160.333 167.830  0.00  0.00    +0.000 A 
ATOM      4  C6  UNL     1     153.388 159.352 167.996  0.00  0.00    +0.000 A 
ATOM      5  C7  UNL     1     153.287 158.684 169.178  0.00  0.00    +0.000 A 
ATOM      6  N1  UNL     1     154.118 158.985 170.182  0.00  0.00    +0.000 NA
ATOM      7  C8  UNL     1     155.063 159.935 170.067  0.00  0.00    +0.000 A 
ENDROOT
BRANCH   3   8
ATOM      8  O1  UNL     1     154.483 161.023 166.684  0.00  0.00    +0.000 OA
BRANCH   8   9
ATOM      9  C4  UNL     1     154.859 160.886 165.400  0.00  0.00    +0.000 C 
BRANCH   9  10
ATOM     10  C5  UNL     1     155.874 159.852 165.032  0.00  0.00    +0.000 C 
ATOM     11  F1  UNL     1     155.350 158.589 165.338  0.00  0.00    +0.000 F 
ATOM     12  F2  UNL     1     156.358 159.931 163.768  0.00  0.00    +0.000 F 
ATOM     13  F3  UNL     1     156.998 159.970 165.885  0.00  0.00    +0.000 F 
ENDBRANCH   9  10
ENDBRANCH   8   9
ENDBRANCH   3   8
BRANCH   7  14
ATOM     14  C9  UNL     1     155.933 160.198 171.221  0.00  0.00    +0.000 C 
BRANCH  14  15
ATOM     15  S1  UNL     1     157.192 158.939 171.361  0.00  0.00    +0.000 S 
ATOM     16  O2  UNL     1     156.612 157.752 172.120  0.00  0.00    +0.000 OA
BRANCH  15  17
ATOM     17  C10 UNL     1     157.643 158.347 169.746  0.00  0.00    +0.000 A 
ATOM     18  N2  UNL     1     158.735 158.699 169.053  0.00  0.00    +0.000 NA
ATOM     19  C11 UNL     1     158.736 158.038 167.861  0.00  0.00    +0.000 A 
ATOM     20  C12 UNL     1     159.613 158.033 166.788  0.00  0.00    +0.000 A 
ATOM     21  C13 UNL     1     159.379 157.256 165.674  0.00  0.00    +0.000 A 
ATOM     22  C14 UNL     1     158.231 156.484 165.678  0.00  0.00    +0.000 A 
ATOM     23  C15 UNL     1     157.339 156.465 166.727  0.00  0.00    +0.000 A 
ATOM     24  C16 UNL     1     157.605 157.253 167.825  0.00  0.00    +0.000 A 
ATOM     25  N3  UNL     1     156.967 157.475 168.996  0.00  0.00    +0.000 N 
ATOM     26  H14 UNL     1     156.060 157.002 169.247  0.00  0.00    +0.000 HD
ENDBRANCH  15  17
ENDBRANCH  14  15
ENDBRANCH   7  14
TORSDOF 6
ENDMDL
MODEL 6
REMARK VINA RESULT:      -5.7      4.852      7.327
REMARK  Name = ./3D_structures\o55_MMV001438_3D.pdb
REMARK  7 active torsions:
REMARK  status: ('A' for Active; 'I' for Inactive)
REMARK    1  A    between atoms: C1_1  and  C2_2
REMARK    2  A    between atoms: C3_3  and  O1_4
REMARK    3  A    between atoms: O1_4  and  C4_5
REMARK    4  A    between atoms: C4_5  and  C5_6
REMARK    5  A    between atoms: C8_13  and  C9_14
REMARK    6  A    between atoms: C9_14  and  S1_15
REMARK    7  A    between atoms: S1_15  and  C10_17
REMARK                            x       y       z     vdW  Elec       q    Type
REMARK                         _______ _______ _______ _____ _____    ______ ____
ROOT
ATOM      1  C1  UNL     1     154.185 157.324 168.621  0.00  0.00    +0.000 C 
ATOM      2  C2  UNL     1     154.165 158.491 167.757  0.00  0.00    +0.000 A 
ATOM      3  C3  UNL     1     154.634 158.344 166.437  0.00  0.00    +0.000 A 
ATOM      4  C6  UNL     1     154.620 159.446 165.611  0.00  0.00    +0.000 A 
ATOM      5  C7  UNL     1     154.160 160.643 166.068  0.00  0.00    +0.000 A 
ATOM      6  N1  UNL     1     153.722 160.747 167.328  0.00  0.00    +0.000 NA
ATOM      7  C8  UNL     1     153.718 159.699 168.171  0.00  0.00    +0.000 A 
ENDROOT
BRANCH   3   8
ATOM      8  O1  UNL     1     155.079 157.141 166.035  0.00  0.00    +0.000 OA
BRANCH   8   9
ATOM      9  C4  UNL     1     156.191 156.496 165.640  0.00  0.00    +0.000 C 
BRANCH   9  10
ATOM     10  C5  UNL     1     157.484 156.747 166.350  0.00  0.00    +0.000 C 
ATOM     11  F1  UNL     1     158.397 155.755 165.967  0.00  0.00    +0.000 F 
ATOM     12  F2  UNL     1     157.983 158.000 166.229  0.00  0.00    +0.000 F 
ATOM     13  F3  UNL     1     157.309 156.531 167.738  0.00  0.00    +0.000 F 
ENDBRANCH   9  10
ENDBRANCH   8   9
ENDBRANCH   3   8
BRANCH   7  14
ATOM     14  C9  UNL     1     153.218 159.905 169.537  0.00  0.00    +0.000 C 
BRANCH  14  15
ATOM     15  S1  UNL     1     154.494 160.602 170.576  0.00  0.00    +0.000 S 
ATOM     16  O2  UNL     1     154.486 159.871 171.912  0.00  0.00    +0.000 OA
BRANCH  15  17
ATOM     17  C10 UNL     1     156.091 160.325 169.847  0.00  0.00    +0.000 A 
ATOM     18  N2  UNL     1     156.897 159.280 170.085  0.00  0.00    +0.000 NA
ATOM     19  C11 UNL     1     158.032 159.418 169.343  0.00  0.00    +0.000 A 
ATOM     20  C12 UNL     1     159.171 158.639 169.212  0.00  0.00    +0.000 A 
ATOM     21  C13 UNL     1     160.201 159.010 168.374  0.00  0.00    +0.000 A 
ATOM     22  C14 UNL     1     160.044 160.192 167.672  0.00  0.00    +0.000 A 
ATOM     23  C15 UNL     1     158.925 160.989 167.779  0.00  0.00    +0.000 A 
ATOM     24  C16 UNL     1     157.916 160.588 168.625  0.00  0.00    +0.000 A 
ATOM     25  N3  UNL     1     156.715 161.108 168.965  0.00  0.00    +0.000 N 
ATOM     26  H14 UNL     1     156.355 162.014 168.565  0.00  0.00    +0.000 HD
ENDBRANCH  15  17
ENDBRANCH  14  15
ENDBRANCH   7  14
TORSDOF 6
ENDMDL
MODEL 7
REMARK VINA RESULT:      -5.6      6.915     10.828
REMARK  Name = ./3D_structures\o55_MMV001438_3D.pdb
REMARK  7 active torsions:
REMARK  status: ('A' for Active; 'I' for Inactive)
REMARK    1  A    between atoms: C1_1  and  C2_2
REMARK    2  A    between atoms: C3_3  and  O1_4
REMARK    3  A    between atoms: O1_4  and  C4_5
REMARK    4  A    between atoms: C4_5  and  C5_6
REMARK    5  A    between atoms: C8_13  and  C9_14
REMARK    6  A    between atoms: C9_14  and  S1_15
REMARK    7  A    between atoms: S1_15  and  C10_17
REMARK                            x       y       z     vdW  Elec       q    Type
REMARK                         _______ _______ _______ _____ _____    ______ ____
ROOT
ATOM      1  C1  UNL     1     153.147 159.599 170.601  0.00  0.00    +0.000 C 
ATOM      2  C2  UNL     1     153.406 159.447 169.180  0.00  0.00    +0.000 A 
ATOM      3  C3  UNL     1     154.376 158.507 168.782  0.00  0.00    +0.000 A 
ATOM      4  C6  UNL     1     154.629 158.357 167.435  0.00  0.00    +0.000 A 
ATOM      5  C7  UNL     1     153.951 159.104 166.521  0.00  0.00    +0.000 A 
ATOM      6  N1  UNL     1     153.036 159.987 166.935  0.00  0.00    +0.000 NA
ATOM      7  C8  UNL     1     152.757 160.170 168.238  0.00  0.00    +0.000 A 
ENDROOT
BRANCH   3   8
ATOM      8  O1  UNL     1     155.018 157.796 169.725  0.00  0.00    +0.000 OA
BRANCH   8   9
ATOM      9  C4  UNL     1     156.250 157.487 170.169  0.00  0.00    +0.000 C 
BRANCH   9  10
ATOM     10  C5  UNL     1     156.937 158.397 171.136  0.00  0.00    +0.000 C 
ATOM     11  F1  UNL     1     156.411 158.163 172.413  0.00  0.00    +0.000 F 
ATOM     12  F2  UNL     1     158.292 158.365 171.109  0.00  0.00    +0.000 F 
ATOM     13  F3  UNL     1     156.576 159.739 170.860  0.00  0.00    +0.000 F 
ENDBRANCH   9  10
ENDBRANCH   8   9
ENDBRANCH   3   8
BRANCH   7  14
ATOM     14  C9  UNL     1     151.736 161.162 168.601  0.00  0.00    +0.000 C 
BRANCH  14  15
ATOM     15  S1  UNL     1     150.097 160.486 168.389  0.00  0.00    +0.000 S 
ATOM     16  O2  UNL     1     149.785 159.584 169.576  0.00  0.00    +0.000 OA
BRANCH  15  17
ATOM     17  C10 UNL     1     148.892 161.793 168.405  0.00  0.00    +0.000 A 
ATOM     18  N2  UNL     1     148.642 162.623 169.428  0.00  0.00    +0.000 NA
ATOM     19  C11 UNL     1     147.654 163.489 169.065  0.00  0.00    +0.000 A 
ATOM     20  C12 UNL     1     147.025 164.531 169.728  0.00  0.00    +0.000 A 
ATOM     21  C13 UNL     1     146.032 165.271 169.122  0.00  0.00    +0.000 A 
ATOM     22  C14 UNL     1     145.695 164.926 167.825  0.00  0.00    +0.000 A 
ATOM     23  C15 UNL     1     146.300 163.896 167.138  0.00  0.00    +0.000 A 
ATOM     24  C16 UNL     1     147.289 163.178 167.774  0.00  0.00    +0.000 A 
ATOM     25  N3  UNL     1     148.071 162.136 167.412  0.00  0.00    +0.000 N 
ATOM     26  H14 UNL     1     148.009 161.684 166.463  0.00  0.00    +0.000 HD
ENDBRANCH  15  17
ENDBRANCH  14  15
ENDBRANCH   7  14
TORSDOF 6
ENDMDL
MODEL 8
REMARK VINA RESULT:      -5.6     11.035     13.463
REMARK  Name = ./3D_structures\o55_MMV001438_3D.pdb
REMARK  7 active torsions:
REMARK  status: ('A' for Active; 'I' for Inactive)
REMARK    1  A    between atoms: C1_1  and  C2_2
REMARK    2  A    between atoms: C3_3  and  O1_4
REMARK    3  A    between atoms: O1_4  and  C4_5
REMARK    4  A    between atoms: C4_5  and  C5_6
REMARK    5  A    between atoms: C8_13  and  C9_14
REMARK    6  A    between atoms: C9_14  and  S1_15
REMARK    7  A    between atoms: S1_15  and  C10_17
REMARK                            x       y       z     vdW  Elec       q    Type
REMARK                         _______ _______ _______ _____ _____    ______ ____
ROOT
ATOM      1  C1  UNL     1     146.073 165.135 169.396  0.00  0.00    +0.000 C 
ATOM      2  C2  UNL     1     146.569 163.856 168.918  0.00  0.00    +0.000 A 
ATOM      3  C3  UNL     1     145.695 163.050 168.162  0.00  0.00    +0.000 A 
ATOM      4  C6  UNL     1     146.156 161.834 167.706  0.00  0.00    +0.000 A 
ATOM      5  C7  UNL     1     147.427 161.432 167.983  0.00  0.00    +0.000 A 
ATOM      6  N1  UNL     1     148.230 162.224 168.704  0.00  0.00    +0.000 NA
ATOM      7  C8  UNL     1     147.823 163.417 169.172  0.00  0.00    +0.000 A 
ENDROOT
BRANCH   3   8
ATOM      8  O1  UNL     1     144.450 163.492 167.917  0.00  0.00    +0.000 OA
BRANCH   8   9
ATOM      9  C4  UNL     1     143.591 163.751 166.915  0.00  0.00    +0.000 C 
BRANCH   9  10
ATOM     10  C5  UNL     1     144.004 164.660 165.802  0.00  0.00    +0.000 C 
ATOM     11  F1  UNL     1     144.535 165.830 166.362  0.00  0.00    +0.000 F 
ATOM     12  F2  UNL     1     144.814 164.109 164.866  0.00  0.00    +0.000 F 
ATOM     13  F3  UNL     1     142.855 165.107 165.106  0.00  0.00    +0.000 F 
ENDBRANCH   9  10
ENDBRANCH   8   9
ENDBRANCH   3   8
BRANCH   7  14
ATOM     14  C9  UNL     1     148.772 164.220 169.955  0.00  0.00    +0.000 C 
BRANCH  14  15
ATOM     15  S1  UNL     1     149.565 165.442 168.921  0.00  0.00    +0.000 S 
ATOM     16  O2  UNL     1     150.637 166.150 169.740  0.00  0.00    +0.000 OA
BRANCH  15  17
ATOM     17  C10 UNL     1     150.396 164.646 167.566  0.00  0.00    +0.000 A 
ATOM     18  N2  UNL     1     150.751 165.224 166.410  0.00  0.00    +0.000 NA
ATOM     19  C11 UNL     1     151.365 164.297 165.621  0.00  0.00    +0.000 A 
ATOM     20  C12 UNL     1     151.917 164.358 164.351  0.00  0.00    +0.000 A 
ATOM     21  C13 UNL     1     152.491 163.251 163.765  0.00  0.00    +0.000 A 
ATOM     22  C14 UNL     1     152.492 162.080 164.501  0.00  0.00    +0.000 A 
ATOM     23  C15 UNL     1     151.952 161.984 165.765  0.00  0.00    +0.000 A 
ATOM     24  C16 UNL     1     151.386 163.111 166.321  0.00  0.00    +0.000 A 
ATOM     25  N3  UNL     1     150.783 163.371 167.503  0.00  0.00    +0.000 N 
ATOM     26  H14 UNL     1     150.656 162.638 168.248  0.00  0.00    +0.000 HD
ENDBRANCH  15  17
ENDBRANCH  14  15
ENDBRANCH   7  14
TORSDOF 6
ENDMDL
MODEL 9
REMARK VINA RESULT:      -5.6      5.031      7.303
REMARK  Name = ./3D_structures\o55_MMV001438_3D.pdb
REMARK  7 active torsions:
REMARK  status: ('A' for Active; 'I' for Inactive)
REMARK    1  A    between atoms: C1_1  and  C2_2
REMARK    2  A    between atoms: C3_3  and  O1_4
REMARK    3  A    between atoms: O1_4  and  C4_5
REMARK    4  A    between atoms: C4_5  and  C5_6
REMARK    5  A    between atoms: C8_13  and  C9_14
REMARK    6  A    between atoms: C9_14  and  S1_15
REMARK    7  A    between atoms: S1_15  and  C10_17
REMARK                            x       y       z     vdW  Elec       q    Type
REMARK                         _______ _______ _______ _____ _____    ______ ____
ROOT
ATOM      1  C1  UNL     1     156.420 159.699 164.386  0.00  0.00    +0.000 C 
ATOM      2  C2  UNL     1     155.596 159.148 165.447  0.00  0.00    +0.000 A 
ATOM      3  C3  UNL     1     154.533 159.933 165.934  0.00  0.00    +0.000 A 
ATOM      4  C6  UNL     1     153.747 159.419 166.942  0.00  0.00    +0.000 A 
ATOM      5  C7  UNL     1     153.999 158.180 167.447  0.00  0.00    +0.000 A 
ATOM      6  N1  UNL     1     155.017 157.461 166.960  0.00  0.00    +0.000 NA
ATOM      7  C8  UNL     1     155.812 157.922 165.978  0.00  0.00    +0.000 A 
ENDROOT
BRANCH   3   8
ATOM      8  O1  UNL     1     154.328 161.151 165.403  0.00  0.00    +0.000 OA
BRANCH   8   9
ATOM      9  C4  UNL     1     153.577 162.258 165.541  0.00  0.00    +0.000 C 
BRANCH   9  10
ATOM     10  C5  UNL     1     152.292 162.381 164.785  0.00  0.00    +0.000 C 
ATOM     11  F1  UNL     1     151.377 163.083 165.580  0.00  0.00    +0.000 F 
ATOM     12  F2  UNL     1     152.398 162.884 163.531  0.00  0.00    +0.000 F 
ATOM     13  F3  UNL     1     151.706 161.100 164.640  0.00  0.00    +0.000 F 
ENDBRANCH   9  10
ENDBRANCH   8   9
ENDBRANCH   3   8
BRANCH   7  14
ATOM     14  C9  UNL     1     156.907 157.064 165.505  0.00  0.00    +0.000 C 
BRANCH  14  15
ATOM     15  S1  UNL     1     158.337 157.227 166.564  0.00  0.00    +0.000 S 
ATOM     16  O2  UNL     1     159.328 158.174 165.899  0.00  0.00    +0.000 OA
BRANCH  15  17
ATOM     17  C10 UNL     1     157.869 157.973 168.108  0.00  0.00    +0.000 A 
ATOM     18  N2  UNL     1     158.107 159.240 168.477  0.00  0.00    +0.000 NA
ATOM     19  C11 UNL     1     157.599 159.442 169.725  0.00  0.00    +0.000 A 
ATOM     20  C12 UNL     1     157.571 160.546 170.563  0.00  0.00    +0.000 A 
ATOM     21  C13 UNL     1     156.980 160.486 171.807  0.00  0.00    +0.000 A 
ATOM     22  C14 UNL     1     156.420 159.277 172.179  0.00  0.00    +0.000 A 
ATOM     23  C15 UNL     1     156.433 158.161 171.372  0.00  0.00    +0.000 A 
ATOM     24  C16 UNL     1     157.030 158.256 170.134  0.00  0.00    +0.000 A 
ATOM     25  N3  UNL     1     157.219 157.388 169.115  0.00  0.00    +0.000 N 
ATOM     26  H14 UNL     1     156.882 156.391 169.150  0.00  0.00    +0.000 HD
ENDBRANCH  15  17
ENDBRANCH  14  15
ENDBRANCH   7  14
TORSDOF 6
ENDMDL
