MODEL 1
REMARK VINA RESULT:      -5.3      0.000      0.000
REMARK  Name = ./3D_structures\o56_MMV1582496_3D.pdb
REMARK  5 active torsions:
REMARK  status: ('A' for Active; 'I' for Inactive)
REMARK    1  A    between atoms: C3_5  and  N1_6
REMARK    2  A    between atoms: N1_6  and  C4_7
REMARK    3  A    between atoms: C4_7  and  C5_8
REMARK    4  A    between atoms: C11_14  and  C12_15
REMARK    5  A    between atoms: C14_19  and  C15_20
REMARK                            x       y       z     vdW  Elec       q    Type
REMARK                         _______ _______ _______ _____ _____    ______ ____
ROOT
ATOM      1  F1  UNL     1     146.144 166.994 165.216  0.00  0.00    +0.000 F 
ATOM      2  C1  UNL     1     146.063 165.930 166.052  0.00  0.00    +0.000 A 
ATOM      3  C2  UNL     1     147.181 165.403 166.686  0.00  0.00    +0.000 A 
ATOM      4 CL1  UNL     1     148.713 166.185 166.355  0.00  0.00    +0.000 Cl
ATOM      5  C3  UNL     1     147.043 164.320 167.526  0.00  0.00    +0.000 A 
ATOM      6  C11 UNL     1     145.826 163.724 167.770  0.00  0.00    +0.000 A 
ATOM      7  C13 UNL     1     144.717 164.248 167.139  0.00  0.00    +0.000 A 
ATOM      8  F2  UNL     1     143.530 163.656 167.385  0.00  0.00    +0.000 F 
ATOM      9  C14 UNL     1     144.831 165.348 166.282  0.00  0.00    +0.000 A 
ENDROOT
BRANCH   5  10
ATOM     10  N1  UNL     1     148.213 163.801 168.163  0.00  0.00    +0.000 N 
ATOM     11  H1  UNL     1     148.411 164.198 169.104  0.00  0.00    +0.000 HD
BRANCH  10  12
ATOM     12  C4  UNL     1     149.011 162.796 167.499  0.00  0.00    +0.000 C 
BRANCH  12  13
ATOM     13  C5  UNL     1     149.669 161.921 168.504  0.00  0.00    +0.000 A 
ATOM     14  C6  UNL     1     149.510 160.532 168.450  0.00  0.00    +0.000 A 
ATOM     15  C7  UNL     1     150.115 159.701 169.369  0.00  0.00    +0.000 A 
ATOM     16  C8  UNL     1     150.903 160.201 170.382  0.00  0.00    +0.000 A 
ATOM     17  C9  UNL     1     151.067 161.566 170.447  0.00  0.00    +0.000 A 
ATOM     18  C10 UNL     1     150.462 162.395 169.526  0.00  0.00    +0.000 A 
ENDBRANCH  12  13
ENDBRANCH  10  12
ENDBRANCH   5  10
BRANCH   6  19
ATOM     19  C12 UNL     1     145.728 162.576 168.668  0.00  0.00    +0.000 C 
ATOM     20  N2  UNL     1     145.635 161.665 169.363  0.00  0.00    +0.000 NA
ENDBRANCH   6  19
BRANCH   9  21
ATOM     21  C15 UNL     1     143.626 165.837 165.661  0.00  0.00    +0.000 C 
ATOM     22  N3  UNL     1     142.654 166.225 165.169  0.00  0.00    +0.000 NA
ENDBRANCH   9  21
TORSDOF 5
ENDMDL
MODEL 2
REMARK VINA RESULT:      -5.3      1.271      1.885
REMARK  Name = ./3D_structures\o56_MMV1582496_3D.pdb
REMARK  5 active torsions:
REMARK  status: ('A' for Active; 'I' for Inactive)
REMARK    1  A    between atoms: C3_5  and  N1_6
REMARK    2  A    between atoms: N1_6  and  C4_7
REMARK    3  A    between atoms: C4_7  and  C5_8
REMARK    4  A    between atoms: C11_14  and  C12_15
REMARK    5  A    between atoms: C14_19  and  C15_20
REMARK                            x       y       z     vdW  Elec       q    Type
REMARK                         _______ _______ _______ _____ _____    ______ ____
ROOT
ATOM      1  F1  UNL     1     147.902 166.825 165.723  0.00  0.00    +0.000 F 
ATOM      2  C1  UNL     1     147.429 165.778 166.443  0.00  0.00    +0.000 A 
ATOM      3  C2  UNL     1     148.276 164.864 167.059  0.00  0.00    +0.000 A 
ATOM      4 CL1  UNL     1     149.996 165.130 166.861  0.00  0.00    +0.000 Cl
ATOM      5  C3  UNL     1     147.743 163.817 167.778  0.00  0.00    +0.000 A 
ATOM      6  C11 UNL     1     146.386 163.631 167.918  0.00  0.00    +0.000 A 
ATOM      7  C13 UNL     1     145.548 164.539 167.306  0.00  0.00    +0.000 A 
ATOM      8  F2  UNL     1     144.220 164.347 167.449  0.00  0.00    +0.000 F 
ATOM      9  C14 UNL     1     146.064 165.611 166.570  0.00  0.00    +0.000 A 
ENDROOT
BRANCH   5  10
ATOM     10  N1  UNL     1     148.640 162.893 168.399  0.00  0.00    +0.000 N 
ATOM     11  H1  UNL     1     148.751 163.015 169.426  0.00  0.00    +0.000 HD
BRANCH  10  12
ATOM     12  C4  UNL     1     149.306 161.887 167.603  0.00  0.00    +0.000 C 
BRANCH  12  13
ATOM     13  C5  UNL     1     149.159 160.553 168.242  0.00  0.00    +0.000 A 
ATOM     14  C6  UNL     1     150.124 160.087 169.143  0.00  0.00    +0.000 A 
ATOM     15  C7  UNL     1     150.005 158.856 169.751  0.00  0.00    +0.000 A 
ATOM     16  C8  UNL     1     148.933 158.028 169.500  0.00  0.00    +0.000 A 
ATOM     17  C9  UNL     1     147.978 158.474 168.615  0.00  0.00    +0.000 A 
ATOM     18  C10 UNL     1     148.097 159.707 168.008  0.00  0.00    +0.000 A 
ENDBRANCH  12  13
ENDBRANCH  10  12
ENDBRANCH   5  10
BRANCH   6  19
ATOM     19  C12 UNL     1     145.866 162.505 168.690  0.00  0.00    +0.000 C 
ATOM     20  N2  UNL     1     145.477 161.615 169.305  0.00  0.00    +0.000 NA
ENDBRANCH   6  19
BRANCH   9  21
ATOM     21  C15 UNL     1     145.122 166.516 165.961  0.00  0.00    +0.000 C 
ATOM     22  N3  UNL     1     144.361 167.242 165.480  0.00  0.00    +0.000 NA
ENDBRANCH   9  21
TORSDOF 5
ENDMDL
MODEL 3
REMARK VINA RESULT:      -5.3      2.473      3.942
REMARK  Name = ./3D_structures\o56_MMV1582496_3D.pdb
REMARK  5 active torsions:
REMARK  status: ('A' for Active; 'I' for Inactive)
REMARK    1  A    between atoms: C3_5  and  N1_6
REMARK    2  A    between atoms: N1_6  and  C4_7
REMARK    3  A    between atoms: C4_7  and  C5_8
REMARK    4  A    between atoms: C11_14  and  C12_15
REMARK    5  A    between atoms: C14_19  and  C15_20
REMARK                            x       y       z     vdW  Elec       q    Type
REMARK                         _______ _______ _______ _____ _____    ______ ____
ROOT
ATOM      1  F1  UNL     1     143.590 163.771 167.511  0.00  0.00    +0.000 F 
ATOM      2  C1  UNL     1     144.855 164.150 167.205  0.00  0.00    +0.000 A 
ATOM      3  C2  UNL     1     145.967 163.492 167.716  0.00  0.00    +0.000 A 
ATOM      4 CL1  UNL     1     145.657 162.138 168.782  0.00  0.00    +0.000 Cl
ATOM      5  C3  UNL     1     147.231 163.919 167.373  0.00  0.00    +0.000 A 
ATOM      6  C11 UNL     1     147.448 164.988 166.531  0.00  0.00    +0.000 A 
ATOM      7  C13 UNL     1     146.342 165.639 166.025  0.00  0.00    +0.000 A 
ATOM      8  F2  UNL     1     146.566 166.685 165.202  0.00  0.00    +0.000 F 
ATOM      9  C14 UNL     1     145.048 165.225 166.359  0.00  0.00    +0.000 A 
ENDROOT
BRANCH   5  10
ATOM     10  N1  UNL     1     148.355 163.222 167.915  0.00  0.00    +0.000 N 
ATOM     11  H1  UNL     1     148.942 162.727 167.213  0.00  0.00    +0.000 HD
BRANCH  10  12
ATOM     12  C4  UNL     1     148.602 163.248 169.339  0.00  0.00    +0.000 C 
BRANCH  12  13
ATOM     13  C5  UNL     1     149.353 164.478 169.702  0.00  0.00    +0.000 A 
ATOM     14  C6  UNL     1     150.679 164.650 169.288  0.00  0.00    +0.000 A 
ATOM     15  C7  UNL     1     151.392 165.785 169.610  0.00  0.00    +0.000 A 
ATOM     16  C8  UNL     1     150.833 166.801 170.354  0.00  0.00    +0.000 A 
ATOM     17  C9  UNL     1     149.530 166.643 170.769  0.00  0.00    +0.000 A 
ATOM     18  C10 UNL     1     148.818 165.508 170.445  0.00  0.00    +0.000 A 
ENDBRANCH  12  13
ENDBRANCH  10  12
ENDBRANCH   5  10
BRANCH   6  19
ATOM     19  C12 UNL     1     148.806 165.405 166.195  0.00  0.00    +0.000 C 
ATOM     20  N2  UNL     1     149.876 165.722 165.915  0.00  0.00    +0.000 NA
ENDBRANCH   6  19
BRANCH   9  21
ATOM     21  C15 UNL     1     143.946 165.958 165.789  0.00  0.00    +0.000 C 
ATOM     22  N3  UNL     1     143.057 166.539 165.330  0.00  0.00    +0.000 NA
ENDBRANCH   9  21
TORSDOF 5
ENDMDL
MODEL 4
REMARK VINA RESULT:      -5.3      2.056      2.841
REMARK  Name = ./3D_structures\o56_MMV1582496_3D.pdb
REMARK  5 active torsions:
REMARK  status: ('A' for Active; 'I' for Inactive)
REMARK    1  A    between atoms: C3_5  and  N1_6
REMARK    2  A    between atoms: N1_6  and  C4_7
REMARK    3  A    between atoms: C4_7  and  C5_8
REMARK    4  A    between atoms: C11_14  and  C12_15
REMARK    5  A    between atoms: C14_19  and  C15_20
REMARK                            x       y       z     vdW  Elec       q    Type
REMARK                         _______ _______ _______ _____ _____    ______ ____
ROOT
ATOM      1  F1  UNL     1     146.580 166.952 165.339  0.00  0.00    +0.000 F 
ATOM      2  C1  UNL     1     146.399 165.853 166.112  0.00  0.00    +0.000 A 
ATOM      3  C2  UNL     1     147.464 165.180 166.699  0.00  0.00    +0.000 A 
ATOM      4 CL1  UNL     1     149.064 165.822 166.391  0.00  0.00    +0.000 Cl
ATOM      5  C3  UNL     1     147.224 164.068 167.475  0.00  0.00    +0.000 A 
ATOM      6  C11 UNL     1     145.954 163.584 167.702  0.00  0.00    +0.000 A 
ATOM      7  C13 UNL     1     144.899 164.253 167.119  0.00  0.00    +0.000 A 
ATOM      8  F2  UNL     1     143.660 163.770 167.347  0.00  0.00    +0.000 F 
ATOM      9  C14 UNL     1     145.116 165.385 166.325  0.00  0.00    +0.000 A 
ENDROOT
BRANCH   5  10
ATOM     10  N1  UNL     1     148.340 163.397 168.065  0.00  0.00    +0.000 N 
ATOM     11  H1  UNL     1     148.938 162.872 167.394  0.00  0.00    +0.000 HD
BRANCH  10  12
ATOM     12  C4  UNL     1     148.567 163.487 169.489  0.00  0.00    +0.000 C 
BRANCH  12  13
ATOM     13  C5  UNL     1     149.441 164.650 169.793  0.00  0.00    +0.000 A 
ATOM     14  C6  UNL     1     148.950 165.736 170.527  0.00  0.00    +0.000 A 
ATOM     15  C7  UNL     1     149.745 166.822 170.824  0.00  0.00    +0.000 A 
ATOM     16  C8  UNL     1     151.058 166.889 170.412  0.00  0.00    +0.000 A 
ATOM     17  C9  UNL     1     151.553 165.827 169.689  0.00  0.00    +0.000 A 
ATOM     18  C10 UNL     1     150.757 164.741 169.393  0.00  0.00    +0.000 A 
ENDBRANCH  12  13
ENDBRANCH  10  12
ENDBRANCH   5  10
BRANCH   6  19
ATOM     19  C12 UNL     1     145.748 162.400 168.532  0.00  0.00    +0.000 C 
ATOM     20  N2  UNL     1     145.588 161.480 169.203  0.00  0.00    +0.000 NA
ENDBRANCH   6  19
BRANCH   9  21
ATOM     21  C15 UNL     1     143.962 166.029 165.752  0.00  0.00    +0.000 C 
ATOM     22  N3  UNL     1     143.030 166.542 165.298  0.00  0.00    +0.000 NA
ENDBRANCH   9  21
TORSDOF 5
ENDMDL
MODEL 5
REMARK VINA RESULT:      -5.2      1.517      2.847
REMARK  Name = ./3D_structures\o56_MMV1582496_3D.pdb
REMARK  5 active torsions:
REMARK  status: ('A' for Active; 'I' for Inactive)
REMARK    1  A    between atoms: C3_5  and  N1_6
REMARK    2  A    between atoms: N1_6  and  C4_7
REMARK    3  A    between atoms: C4_7  and  C5_8
REMARK    4  A    between atoms: C11_14  and  C12_15
REMARK    5  A    between atoms: C14_19  and  C15_20
REMARK                            x       y       z     vdW  Elec       q    Type
REMARK                         _______ _______ _______ _____ _____    ______ ____
ROOT
ATOM      1  F1  UNL     1     143.414 163.668 167.587  0.00  0.00    +0.000 F 
ATOM      2  C1  UNL     1     144.667 164.083 167.277  0.00  0.00    +0.000 A 
ATOM      3  C2  UNL     1     145.796 163.519 167.859  0.00  0.00    +0.000 A 
ATOM      4 CL1  UNL     1     145.524 162.237 169.021  0.00  0.00    +0.000 Cl
ATOM      5  C3  UNL     1     147.047 163.978 167.509  0.00  0.00    +0.000 A 
ATOM      6  C11 UNL     1     147.234 164.988 166.591  0.00  0.00    +0.000 A 
ATOM      7  C13 UNL     1     146.112 165.545 166.014  0.00  0.00    +0.000 A 
ATOM      8  F2  UNL     1     146.307 166.534 165.117  0.00  0.00    +0.000 F 
ATOM      9  C14 UNL     1     144.831 165.098 166.354  0.00  0.00    +0.000 A 
ENDROOT
BRANCH   5  10
ATOM     10  N1  UNL     1     148.188 163.378 168.126  0.00  0.00    +0.000 N 
ATOM     11  H1  UNL     1     148.535 163.869 168.975  0.00  0.00    +0.000 HD
BRANCH  10  12
ATOM     12  C4  UNL     1     148.764 162.177 167.565  0.00  0.00    +0.000 C 
BRANCH  12  13
ATOM     13  C5  UNL     1     149.562 161.465 168.596  0.00  0.00    +0.000 A 
ATOM     14  C6  UNL     1     149.537 160.068 168.676  0.00  0.00    +0.000 A 
ATOM     15  C7  UNL     1     150.274 159.387 169.621  0.00  0.00    +0.000 A 
ATOM     16  C8  UNL     1     151.068 160.050 170.531  0.00  0.00    +0.000 A 
ATOM     17  C9  UNL     1     151.101 161.425 170.464  0.00  0.00    +0.000 A 
ATOM     18  C10 UNL     1     150.364 162.104 169.517  0.00  0.00    +0.000 A 
ENDBRANCH  12  13
ENDBRANCH  10  12
ENDBRANCH   5  10
BRANCH   6  19
ATOM     19  C12 UNL     1     148.579 165.442 166.251  0.00  0.00    +0.000 C 
ATOM     20  N2  UNL     1     149.634 165.819 165.989  0.00  0.00    +0.000 NA
ENDBRANCH   6  19
BRANCH   9  21
ATOM     21  C15 UNL     1     143.710 165.731 165.707  0.00  0.00    +0.000 C 
ATOM     22  N3  UNL     1     142.805 166.236 165.193  0.00  0.00    +0.000 NA
ENDBRANCH   9  21
TORSDOF 5
ENDMDL
MODEL 6
REMARK VINA RESULT:      -5.2      8.210     11.537
REMARK  Name = ./3D_structures\o56_MMV1582496_3D.pdb
REMARK  5 active torsions:
REMARK  status: ('A' for Active; 'I' for Inactive)
REMARK    1  A    between atoms: C3_5  and  N1_6
REMARK    2  A    between atoms: N1_6  and  C4_7
REMARK    3  A    between atoms: C4_7  and  C5_8
REMARK    4  A    between atoms: C11_14  and  C12_15
REMARK    5  A    between atoms: C14_19  and  C15_20
REMARK                            x       y       z     vdW  Elec       q    Type
REMARK                         _______ _______ _______ _____ _____    ______ ____
ROOT
ATOM      1  F1  UNL     1     157.231 158.094 165.249  0.00  0.00    +0.000 F 
ATOM      2  C1  UNL     1     157.108 158.079 166.599  0.00  0.00    +0.000 A 
ATOM      3  C2  UNL     1     155.869 158.056 167.227  0.00  0.00    +0.000 A 
ATOM      4 CL1  UNL     1     154.460 158.047 166.186  0.00  0.00    +0.000 Cl
ATOM      5  C3  UNL     1     155.800 158.043 168.603  0.00  0.00    +0.000 A 
ATOM      6  C11 UNL     1     156.924 158.050 169.399  0.00  0.00    +0.000 A 
ATOM      7  C13 UNL     1     158.153 158.073 168.774  0.00  0.00    +0.000 A 
ATOM      8  F2  UNL     1     159.247 158.081 169.563  0.00  0.00    +0.000 F 
ATOM      9  C14 UNL     1     158.249 158.088 167.378  0.00  0.00    +0.000 A 
ENDROOT
BRANCH   5  10
ATOM     10  N1  UNL     1     154.511 158.020 169.219  0.00  0.00    +0.000 N 
ATOM     11  H1  UNL     1     154.171 157.074 169.485  0.00  0.00    +0.000 HD
BRANCH  10  12
ATOM     12  C4  UNL     1     153.791 159.255 169.432  0.00  0.00    +0.000 C 
BRANCH  12  13
ATOM     13  C5  UNL     1     152.334 158.983 169.541  0.00  0.00    +0.000 A 
ATOM     14  C6  UNL     1     151.874 157.779 170.087  0.00  0.00    +0.000 A 
ATOM     15  C7  UNL     1     150.528 157.508 170.201  0.00  0.00    +0.000 A 
ATOM     16  C8  UNL     1     149.573 158.409 169.784  0.00  0.00    +0.000 A 
ATOM     17  C9  UNL     1     150.012 159.597 169.244  0.00  0.00    +0.000 A 
ATOM     18  C10 UNL     1     151.360 159.867 169.131  0.00  0.00    +0.000 A 
ENDBRANCH  12  13
ENDBRANCH  10  12
ENDBRANCH   5  10
BRANCH   6  19
ATOM     19  C12 UNL     1     156.803 158.036 170.855  0.00  0.00    +0.000 C 
ATOM     20  N2  UNL     1     156.687 158.020 171.999  0.00  0.00    +0.000 NA
ENDBRANCH   6  19
BRANCH   9  21
ATOM     21  C15 UNL     1     159.569 158.111 166.801  0.00  0.00    +0.000 C 
ATOM     22  N3  UNL     1     160.630 158.121 166.338  0.00  0.00    +0.000 NA
ENDBRANCH   9  21
TORSDOF 5
ENDMDL
MODEL 7
REMARK VINA RESULT:      -5.2      7.873      9.591
REMARK  Name = ./3D_structures\o56_MMV1582496_3D.pdb
REMARK  5 active torsions:
REMARK  status: ('A' for Active; 'I' for Inactive)
REMARK    1  A    between atoms: C3_5  and  N1_6
REMARK    2  A    between atoms: N1_6  and  C4_7
REMARK    3  A    between atoms: C4_7  and  C5_8
REMARK    4  A    between atoms: C11_14  and  C12_15
REMARK    5  A    between atoms: C14_19  and  C15_20
REMARK                            x       y       z     vdW  Elec       q    Type
REMARK                         _______ _______ _______ _____ _____    ______ ____
ROOT
ATOM      1  F1  UNL     1     155.807 160.249 164.216  0.00  0.00    +0.000 F 
ATOM      2  C1  UNL     1     155.251 159.744 165.345  0.00  0.00    +0.000 A 
ATOM      3  C2  UNL     1     155.827 158.691 166.045  0.00  0.00    +0.000 A 
ATOM      4 CL1  UNL     1     157.318 158.040 165.397  0.00  0.00    +0.000 Cl
ATOM      5  C3  UNL     1     155.220 158.217 167.187  0.00  0.00    +0.000 A 
ATOM      6  C11 UNL     1     154.047 158.748 167.676  0.00  0.00    +0.000 A 
ATOM      7  C13 UNL     1     153.477 159.793 166.979  0.00  0.00    +0.000 A 
ATOM      8  F2  UNL     1     152.328 160.305 167.467  0.00  0.00    +0.000 F 
ATOM      9  C14 UNL     1     154.074 160.293 165.817  0.00  0.00    +0.000 A 
ENDROOT
BRANCH   5  10
ATOM     10  N1  UNL     1     155.837 157.132 167.884  0.00  0.00    +0.000 N 
ATOM     11  H1  UNL     1     155.276 156.256 167.913  0.00  0.00    +0.000 HD
BRANCH  10  12
ATOM     12  C4  UNL     1     157.144 157.305 168.476  0.00  0.00    +0.000 C 
BRANCH  12  13
ATOM     13  C5  UNL     1     157.051 158.182 169.672  0.00  0.00    +0.000 A 
ATOM     14  C6  UNL     1     157.558 159.485 169.638  0.00  0.00    +0.000 A 
ATOM     15  C7  UNL     1     157.478 160.317 170.735  0.00  0.00    +0.000 A 
ATOM     16  C8  UNL     1     156.895 159.904 171.912  0.00  0.00    +0.000 A 
ATOM     17  C9  UNL     1     156.392 158.623 171.958  0.00  0.00    +0.000 A 
ATOM     18  C10 UNL     1     156.473 157.792 170.860  0.00  0.00    +0.000 A 
ENDBRANCH  12  13
ENDBRANCH  10  12
ENDBRANCH   5  10
BRANCH   6  19
ATOM     19  C12 UNL     1     153.438 158.212 168.891  0.00  0.00    +0.000 C 
ATOM     20  N2  UNL     1     152.956 157.772 169.837  0.00  0.00    +0.000 NA
ENDBRANCH   6  19
BRANCH   9  21
ATOM     21  C15 UNL     1     153.417 161.386 165.147  0.00  0.00    +0.000 C 
ATOM     22  N3  UNL     1     152.882 162.259 164.608  0.00  0.00    +0.000 NA
ENDBRANCH   9  21
TORSDOF 5
ENDMDL
MODEL 8
REMARK VINA RESULT:      -5.2      3.635      4.589
REMARK  Name = ./3D_structures\o56_MMV1582496_3D.pdb
REMARK  5 active torsions:
REMARK  status: ('A' for Active; 'I' for Inactive)
REMARK    1  A    between atoms: C3_5  and  N1_6
REMARK    2  A    between atoms: N1_6  and  C4_7
REMARK    3  A    between atoms: C4_7  and  C5_8
REMARK    4  A    between atoms: C11_14  and  C12_15
REMARK    5  A    between atoms: C14_19  and  C15_20
REMARK                            x       y       z     vdW  Elec       q    Type
REMARK                         _______ _______ _______ _____ _____    ______ ____
ROOT
ATOM      1  F1  UNL     1     150.736 166.196 164.870  0.00  0.00    +0.000 F 
ATOM      2  C1  UNL     1     150.538 165.173 165.738  0.00  0.00    +0.000 A 
ATOM      3  C2  UNL     1     151.510 164.209 165.975  0.00  0.00    +0.000 A 
ATOM      4 CL1  UNL     1     153.015 164.377 165.095  0.00  0.00    +0.000 Cl
ATOM      5  C3  UNL     1     151.257 163.189 166.867  0.00  0.00    +0.000 A 
ATOM      6  C11 UNL     1     150.064 163.081 167.546  0.00  0.00    +0.000 A 
ATOM      7  C13 UNL     1     149.101 164.039 167.309  0.00  0.00    +0.000 A 
ATOM      8  F2  UNL     1     147.936 163.922 167.979  0.00  0.00    +0.000 F 
ATOM      9  C14 UNL     1     149.333 165.084 166.408  0.00  0.00    +0.000 A 
ENDROOT
BRANCH   5  10
ATOM     10  N1  UNL     1     152.276 162.212 167.089  0.00  0.00    +0.000 N 
ATOM     11  H1  UNL     1     152.830 162.348 167.959  0.00  0.00    +0.000 HD
BRANCH  10  12
ATOM     12  C4  UNL     1     152.466 161.139 166.140  0.00  0.00    +0.000 C 
BRANCH  12  13
ATOM     13  C5  UNL     1     153.160 159.999 166.793  0.00  0.00    +0.000 A 
ATOM     14  C6  UNL     1     152.965 159.733 168.153  0.00  0.00    +0.000 A 
ATOM     15  C7  UNL     1     153.595 158.678 168.777  0.00  0.00    +0.000 A 
ATOM     16  C8  UNL     1     154.445 157.837 168.092  0.00  0.00    +0.000 A 
ATOM     17  C9  UNL     1     154.646 158.088 166.753  0.00  0.00    +0.000 A 
ATOM     18  C10 UNL     1     154.014 159.144 166.130  0.00  0.00    +0.000 A 
ENDBRANCH  12  13
ENDBRANCH  10  12
ENDBRANCH   5  10
BRANCH   6  19
ATOM     19  C12 UNL     1     149.840 161.982 168.482  0.00  0.00    +0.000 C 
ATOM     20  N2  UNL     1     149.677 161.105 169.208  0.00  0.00    +0.000 NA
ENDBRANCH   6  19
BRANCH   9  21
ATOM     21  C15 UNL     1     148.277 166.045 166.216  0.00  0.00    +0.000 C 
ATOM     22  N3  UNL     1     147.425 166.811 166.057  0.00  0.00    +0.000 NA
ENDBRANCH   9  21
TORSDOF 5
ENDMDL
MODEL 9
REMARK VINA RESULT:      -5.2     11.538     13.364
REMARK  Name = ./3D_structures\o56_MMV1582496_3D.pdb
REMARK  5 active torsions:
REMARK  status: ('A' for Active; 'I' for Inactive)
REMARK    1  A    between atoms: C3_5  and  N1_6
REMARK    2  A    between atoms: N1_6  and  C4_7
REMARK    3  A    between atoms: C4_7  and  C5_8
REMARK    4  A    between atoms: C11_14  and  C12_15
REMARK    5  A    between atoms: C14_19  and  C15_20
REMARK                            x       y       z     vdW  Elec       q    Type
REMARK                         _______ _______ _______ _____ _____    ______ ____
ROOT
ATOM      1  F1  UNL     1     161.160 156.712 164.823  0.00  0.00    +0.000 F 
ATOM      2  C1  UNL     1     159.950 156.820 165.426  0.00  0.00    +0.000 A 
ATOM      3  C2  UNL     1     159.722 157.711 166.468  0.00  0.00    +0.000 A 
ATOM      4 CL1  UNL     1     161.080 158.697 166.970  0.00  0.00    +0.000 Cl
ATOM      5  C3  UNL     1     158.474 157.780 167.046  0.00  0.00    +0.000 A 
ATOM      6  C11 UNL     1     157.422 156.992 166.631  0.00  0.00    +0.000 A 
ATOM      7  C13 UNL     1     157.651 156.109 165.598  0.00  0.00    +0.000 A 
ATOM      8  F2  UNL     1     156.614 155.343 165.200  0.00  0.00    +0.000 F 
ATOM      9  C14 UNL     1     158.910 156.020 164.994  0.00  0.00    +0.000 A 
ENDROOT
BRANCH   5  10
ATOM     10  N1  UNL     1     158.271 158.706 168.116  0.00  0.00    +0.000 N 
ATOM     11  H1  UNL     1     157.812 159.598 167.840  0.00  0.00    +0.000 HD
BRANCH  10  12
ATOM     12  C4  UNL     1     158.688 158.363 169.457  0.00  0.00    +0.000 C 
BRANCH  12  13
ATOM     13  C5  UNL     1     157.826 159.053 170.451  0.00  0.00    +0.000 A 
ATOM     14  C6  UNL     1     157.059 158.315 171.360  0.00  0.00    +0.000 A 
ATOM     15  C7  UNL     1     156.256 158.934 172.294  0.00  0.00    +0.000 A 
ATOM     16  C8  UNL     1     156.172 160.307 172.375  0.00  0.00    +0.000 A 
ATOM     17  C9  UNL     1     156.920 161.045 171.485  0.00  0.00    +0.000 A 
ATOM     18  C10 UNL     1     157.724 160.423 170.552  0.00  0.00    +0.000 A 
ENDBRANCH  12  13
ENDBRANCH  10  12
ENDBRANCH   5  10
BRANCH   6  19
ATOM     19  C12 UNL     1     156.115 157.100 167.275  0.00  0.00    +0.000 C 
ATOM     20  N2  UNL     1     155.096 157.192 167.799  0.00  0.00    +0.000 NA
ENDBRANCH   6  19
BRANCH   9  21
ATOM     21  C15 UNL     1     159.068 155.073 163.920  0.00  0.00    +0.000 C 
ATOM     22  N3  UNL     1     159.196 154.306 163.063  0.00  0.00    +0.000 NA
ENDBRANCH   9  21
TORSDOF 5
ENDMDL
