MODEL 1
REMARK VINA RESULT:      -4.8      0.000      0.000
REMARK  Name = ./3D_structures\o5_MMV002169_3D.pdb
REMARK  2 active torsions:
REMARK  status: ('A' for Active; 'I' for Inactive)
REMARK    1  A    between atoms: N1_1  and  N2_2
REMARK    2  A    between atoms: C1_3  and  C2_5
REMARK                            x       y       z     vdW  Elec       q    Type
REMARK                         _______ _______ _______ _____ _____    ______ ____
ROOT
ATOM      1  N2  UNL     1     144.625 168.254 165.605  0.00  0.00    +0.000 N 
ATOM      2  C1  UNL     1     145.501 167.148 165.656  0.00  0.00    +0.000 C 
ATOM      3  O1  UNL     1     146.746 167.391 165.637  0.00  0.00    +0.000 OA
ATOM      4  H3  UNL     1     143.592 168.095 165.618  0.00  0.00    +0.000 HD
ENDROOT
BRANCH   2   5
ATOM      5  C2  UNL     1     145.056 165.757 165.730  0.00  0.00    +0.000 A 
ATOM      6  C3  UNL     1     145.991 164.748 165.797  0.00  0.00    +0.000 A 
ATOM      7  C4  UNL     1     145.550 163.449 165.865  0.00  0.00    +0.000 A 
ATOM      8  N3  UNL     1     144.253 163.120 165.870  0.00  0.00    +0.000 NA
ATOM      9  C5  UNL     1     143.322 164.072 165.807  0.00  0.00    +0.000 A 
ATOM     10  C6  UNL     1     143.728 165.389 165.737  0.00  0.00    +0.000 A 
ENDBRANCH   2   5
BRANCH   1  11
ATOM     11  N1  UNL     1     145.166 169.561 165.535  0.00  0.00    +0.000 NA
ATOM     12  H1  UNL     1     145.324 169.954 166.471  0.00  0.00    +0.000 HD
ATOM     13  H2  UNL     1     144.577 170.174 164.929  0.00  0.00    +0.000 HD
ENDBRANCH   1  11
TORSDOF 2
ENDMDL
MODEL 2
REMARK VINA RESULT:      -4.8      0.058      1.475
REMARK  Name = ./3D_structures\o5_MMV002169_3D.pdb
REMARK  2 active torsions:
REMARK  status: ('A' for Active; 'I' for Inactive)
REMARK    1  A    between atoms: N1_1  and  N2_2
REMARK    2  A    between atoms: C1_3  and  C2_5
REMARK                            x       y       z     vdW  Elec       q    Type
REMARK                         _______ _______ _______ _____ _____    ______ ____
ROOT
ATOM      1  N2  UNL     1     144.625 168.231 165.601  0.00  0.00    +0.000 N 
ATOM      2  C1  UNL     1     145.505 167.129 165.654  0.00  0.00    +0.000 C 
ATOM      3  O1  UNL     1     146.749 167.377 165.640  0.00  0.00    +0.000 OA
ATOM      4  H3  UNL     1     143.592 168.068 165.610  0.00  0.00    +0.000 HD
ENDROOT
BRANCH   2   5
ATOM      5  C2  UNL     1     145.065 165.736 165.723  0.00  0.00    +0.000 A 
ATOM      6  C3  UNL     1     143.718 165.449 165.708  0.00  0.00    +0.000 A 
ATOM      7  C4  UNL     1     143.328 164.134 165.774  0.00  0.00    +0.000 A 
ATOM      8  N3  UNL     1     144.196 163.119 165.852  0.00  0.00    +0.000 NA
ATOM      9  C5  UNL     1     145.507 163.362 165.868  0.00  0.00    +0.000 A 
ATOM     10  C6  UNL     1     145.936 164.672 165.804  0.00  0.00    +0.000 A 
ENDBRANCH   2   5
BRANCH   1  11
ATOM     11  N1  UNL     1     145.160 169.541 165.536  0.00  0.00    +0.000 NA
ATOM     12  H1  UNL     1     146.118 169.538 165.164  0.00  0.00    +0.000 HD
ATOM     13  H2  UNL     1     145.082 170.020 166.461  0.00  0.00    +0.000 HD
ENDBRANCH   1  11
TORSDOF 2
ENDMDL
MODEL 3
REMARK VINA RESULT:      -4.7      8.611      9.395
REMARK  Name = ./3D_structures\o5_MMV002169_3D.pdb
REMARK  2 active torsions:
REMARK  status: ('A' for Active; 'I' for Inactive)
REMARK    1  A    between atoms: N1_1  and  N2_2
REMARK    2  A    between atoms: C1_3  and  C2_5
REMARK                            x       y       z     vdW  Elec       q    Type
REMARK                         _______ _______ _______ _____ _____    ______ ____
ROOT
ATOM      1  N2  UNL     1     144.411 174.137 164.220  0.00  0.00    +0.000 N 
ATOM      2  C1  UNL     1     145.320 174.374 165.273  0.00  0.00    +0.000 C 
ATOM      3  O1  UNL     1     144.834 174.571 166.428  0.00  0.00    +0.000 OA
ATOM      4  H3  UNL     1     144.772 173.970 163.253  0.00  0.00    +0.000 HD
ENDROOT
BRANCH   2   5
ATOM      5  C2  UNL     1     146.772 174.406 165.104  0.00  0.00    +0.000 A 
ATOM      6  C3  UNL     1     147.324 175.202 164.125  0.00  0.00    +0.000 A 
ATOM      7  C4  UNL     1     148.690 175.217 163.984  0.00  0.00    +0.000 A 
ATOM      8  N3  UNL     1     149.510 174.493 164.756  0.00  0.00    +0.000 NA
ATOM      9  C5  UNL     1     149.008 173.713 165.714  0.00  0.00    +0.000 A 
ATOM     10  C6  UNL     1     147.640 173.673 165.884  0.00  0.00    +0.000 A 
ENDBRANCH   2   5
BRANCH   1  11
ATOM     11  N1  UNL     1     143.021 174.127 164.496  0.00  0.00    +0.000 NA
ATOM     12  H1  UNL     1     142.695 173.189 164.757  0.00  0.00    +0.000 HD
ATOM     13  H2  UNL     1     142.483 174.541 163.702  0.00  0.00    +0.000 HD
ENDBRANCH   1  11
TORSDOF 2
ENDMDL
MODEL 4
REMARK VINA RESULT:      -4.4     14.543     15.144
REMARK  Name = ./3D_structures\o5_MMV002169_3D.pdb
REMARK  2 active torsions:
REMARK  status: ('A' for Active; 'I' for Inactive)
REMARK    1  A    between atoms: N1_1  and  N2_2
REMARK    2  A    between atoms: C1_3  and  C2_5
REMARK                            x       y       z     vdW  Elec       q    Type
REMARK                         _______ _______ _______ _____ _____    ______ ____
ROOT
ATOM      1  N2  UNL     1     156.775 156.513 166.572  0.00  0.00    +0.000 N 
ATOM      2  C1  UNL     1     156.010 157.045 167.633  0.00  0.00    +0.000 C 
ATOM      3  O1  UNL     1     154.755 157.119 167.464  0.00  0.00    +0.000 OA
ATOM      4  H3  UNL     1     157.813 156.436 166.672  0.00  0.00    +0.000 HD
ENDROOT
BRANCH   2   5
ATOM      5  C2  UNL     1     156.580 157.509 168.897  0.00  0.00    +0.000 A 
ATOM      6  C3  UNL     1     157.860 158.015 168.918  0.00  0.00    +0.000 A 
ATOM      7  C4  UNL     1     158.376 158.444 170.117  0.00  0.00    +0.000 A 
ATOM      8  N3  UNL     1     157.690 158.394 171.264  0.00  0.00    +0.000 NA
ATOM      9  C5  UNL     1     156.447 157.910 171.279  0.00  0.00    +0.000 A 
ATOM     10  C6  UNL     1     155.897 157.469 170.093  0.00  0.00    +0.000 A 
ENDBRANCH   2   5
BRANCH   1  11
ATOM     11  N1  UNL     1     156.118 156.093 165.389  0.00  0.00    +0.000 NA
ATOM     12  H1  UNL     1     155.452 156.801 165.057  0.00  0.00    +0.000 HD
ATOM     13  H2  UNL     1     155.683 155.153 165.520  0.00  0.00    +0.000 HD
ENDBRANCH   1  11
TORSDOF 2
ENDMDL
MODEL 5
REMARK VINA RESULT:      -4.1      2.592      3.264
REMARK  Name = ./3D_structures\o5_MMV002169_3D.pdb
REMARK  2 active torsions:
REMARK  status: ('A' for Active; 'I' for Inactive)
REMARK    1  A    between atoms: N1_1  and  N2_2
REMARK    2  A    between atoms: C1_3  and  C2_5
REMARK                            x       y       z     vdW  Elec       q    Type
REMARK                         _______ _______ _______ _____ _____    ______ ____
ROOT
ATOM      1  N2  UNL     1     143.269 165.517 165.894  0.00  0.00    +0.000 N 
ATOM      2  C1  UNL     1     144.426 166.324 165.889  0.00  0.00    +0.000 C 
ATOM      3  O1  UNL     1     144.341 167.459 165.330  0.00  0.00    +0.000 OA
ATOM      4  H3  UNL     1     143.298 164.574 166.346  0.00  0.00    +0.000 HD
ENDROOT
BRANCH   2   5
ATOM      5  C2  UNL     1     145.700 165.927 166.487  0.00  0.00    +0.000 A 
ATOM      6  C3  UNL     1     146.879 166.352 165.916  0.00  0.00    +0.000 A 
ATOM      7  C4  UNL     1     148.064 165.967 166.493  0.00  0.00    +0.000 A 
ATOM      8  N3  UNL     1     148.125 165.196 167.585  0.00  0.00    +0.000 NA
ATOM      9  C5  UNL     1     147.003 164.768 168.164  0.00  0.00    +0.000 A 
ATOM     10  C6  UNL     1     145.794 165.135 167.611  0.00  0.00    +0.000 A 
ENDBRANCH   2   5
BRANCH   1  11
ATOM     11  N1  UNL     1     142.085 166.002 165.285  0.00  0.00    +0.000 NA
ATOM     12  H1  UNL     1     141.885 165.510 164.406  0.00  0.00    +0.000 HD
ATOM     13  H2  UNL     1     142.124 167.040 165.174  0.00  0.00    +0.000 HD
ENDBRANCH   1  11
TORSDOF 2
ENDMDL
MODEL 6
REMARK VINA RESULT:      -4.1      9.015      9.794
REMARK  Name = ./3D_structures\o5_MMV002169_3D.pdb
REMARK  2 active torsions:
REMARK  status: ('A' for Active; 'I' for Inactive)
REMARK    1  A    between atoms: N1_1  and  N2_2
REMARK    2  A    between atoms: C1_3  and  C2_5
REMARK                            x       y       z     vdW  Elec       q    Type
REMARK                         _______ _______ _______ _____ _____    ______ ____
ROOT
ATOM      1  N2  UNL     1     145.147 174.061 165.989  0.00  0.00    +0.000 N 
ATOM      2  C1  UNL     1     146.423 174.660 165.919  0.00  0.00    +0.000 C 
ATOM      3  O1  UNL     1     146.937 175.060 167.007  0.00  0.00    +0.000 OA
ATOM      4  H3  UNL     1     144.688 173.718 165.114  0.00  0.00    +0.000 HD
ENDROOT
BRANCH   2   5
ATOM      5  C2  UNL     1     147.172 174.840 164.677  0.00  0.00    +0.000 A 
ATOM      6  C3  UNL     1     148.549 174.804 164.704  0.00  0.00    +0.000 A 
ATOM      7  C4  UNL     1     149.233 174.976 163.525  0.00  0.00    +0.000 A 
ATOM      8  N3  UNL     1     148.622 175.176 162.351  0.00  0.00    +0.000 NA
ATOM      9  C5  UNL     1     147.290 175.215 162.290  0.00  0.00    +0.000 A 
ATOM     10  C6  UNL     1     146.571 175.047 163.454  0.00  0.00    +0.000 A 
ENDBRANCH   2   5
BRANCH   1  11
ATOM     11  N1  UNL     1     144.509 173.937 167.248  0.00  0.00    +0.000 NA
ATOM     12  H1  UNL     1     143.845 173.153 167.258  0.00  0.00    +0.000 HD
ATOM     13  H2  UNL     1     144.076 174.843 167.535  0.00  0.00    +0.000 HD
ENDBRANCH   1  11
TORSDOF 2
ENDMDL
MODEL 7
REMARK VINA RESULT:      -3.9      1.634      2.476
REMARK  Name = ./3D_structures\o5_MMV002169_3D.pdb
REMARK  2 active torsions:
REMARK  status: ('A' for Active; 'I' for Inactive)
REMARK    1  A    between atoms: N1_1  and  N2_2
REMARK    2  A    between atoms: C1_3  and  C2_5
REMARK                            x       y       z     vdW  Elec       q    Type
REMARK                         _______ _______ _______ _____ _____    ______ ____
ROOT
ATOM      1  N2  UNL     1     144.943 166.812 165.800  0.00  0.00    +0.000 N 
ATOM      2  C1  UNL     1     146.217 166.255 166.040  0.00  0.00    +0.000 C 
ATOM      3  O1  UNL     1     147.219 167.024 165.924  0.00  0.00    +0.000 OA
ATOM      4  H3  UNL     1     144.092 166.211 165.885  0.00  0.00    +0.000 HD
ENDROOT
BRANCH   2   5
ATOM      5  C2  UNL     1     146.440 164.858 166.409  0.00  0.00    +0.000 A 
ATOM      6  C3  UNL     1     145.463 163.923 166.147  0.00  0.00    +0.000 A 
ATOM      7  C4  UNL     1     145.694 162.616 166.502  0.00  0.00    +0.000 A 
ATOM      8  N3  UNL     1     146.825 162.210 167.091  0.00  0.00    +0.000 NA
ATOM      9  C5  UNL     1     147.791 163.090 167.357  0.00  0.00    +0.000 A 
ATOM     10  C6  UNL     1     147.594 164.411 167.015  0.00  0.00    +0.000 A 
ENDBRANCH   2   5
BRANCH   1  11
ATOM     11  N1  UNL     1     144.841 168.180 165.448  0.00  0.00    +0.000 NA
ATOM     12  H1  UNL     1     145.651 168.488 164.895  0.00  0.00    +0.000 HD
ATOM     13  H2  UNL     1     144.676 168.770 166.294  0.00  0.00    +0.000 HD
ENDBRANCH   1  11
TORSDOF 2
ENDMDL
MODEL 8
REMARK VINA RESULT:      -3.9      2.624      4.582
REMARK  Name = ./3D_structures\o5_MMV002169_3D.pdb
REMARK  2 active torsions:
REMARK  status: ('A' for Active; 'I' for Inactive)
REMARK    1  A    between atoms: N1_1  and  N2_2
REMARK    2  A    between atoms: C1_3  and  C2_5
REMARK                            x       y       z     vdW  Elec       q    Type
REMARK                         _______ _______ _______ _____ _____    ______ ____
ROOT
ATOM      1  N2  UNL     1     145.464 163.195 168.653  0.00  0.00    +0.000 N 
ATOM      2  C1  UNL     1     146.183 163.407 167.457  0.00  0.00    +0.000 C 
ATOM      3  O1  UNL     1     146.722 162.395 166.916  0.00  0.00    +0.000 OA
ATOM      4  H3  UNL     1     145.005 164.003 169.131  0.00  0.00    +0.000 HD
ENDROOT
BRANCH   2   5
ATOM      5  C2  UNL     1     146.338 164.714 166.820  0.00  0.00    +0.000 A 
ATOM      6  C3  UNL     1     147.601 165.210 166.587  0.00  0.00    +0.000 A 
ATOM      7  C4  UNL     1     147.723 166.439 165.987  0.00  0.00    +0.000 A 
ATOM      8  N3  UNL     1     146.669 167.177 165.619  0.00  0.00    +0.000 NA
ATOM      9  C5  UNL     1     145.432 166.726 165.829  0.00  0.00    +0.000 A 
ATOM     10  C6  UNL     1     145.272 165.495 166.430  0.00  0.00    +0.000 A 
ENDBRANCH   2   5
BRANCH   1  11
ATOM     11  N1  UNL     1     145.378 161.884 169.184  0.00  0.00    +0.000 NA
ATOM     12  H1  UNL     1     145.835 161.819 170.102  0.00  0.00    +0.000 HD
ATOM     13  H2  UNL     1     145.736 161.182 168.499  0.00  0.00    +0.000 HD
ENDBRANCH   1  11
TORSDOF 2
ENDMDL
MODEL 9
REMARK VINA RESULT:      -3.9      3.007      3.179
REMARK  Name = ./3D_structures\o5_MMV002169_3D.pdb
REMARK  2 active torsions:
REMARK  status: ('A' for Active; 'I' for Inactive)
REMARK    1  A    between atoms: N1_1  and  N2_2
REMARK    2  A    between atoms: C1_3  and  C2_5
REMARK                            x       y       z     vdW  Elec       q    Type
REMARK                         _______ _______ _______ _____ _____    ______ ____
ROOT
ATOM      1  N2  UNL     1     148.874 165.274 166.037  0.00  0.00    +0.000 N 
ATOM      2  C1  UNL     1     147.603 165.841 166.268  0.00  0.00    +0.000 C 
ATOM      3  O1  UNL     1     147.412 167.027 165.859  0.00  0.00    +0.000 OA
ATOM      4  H3  UNL     1     149.071 164.299 166.358  0.00  0.00    +0.000 HD
ENDROOT
BRANCH   2   5
ATOM      5  C2  UNL     1     146.510 165.145 166.945  0.00  0.00    +0.000 A 
ATOM      6  C3  UNL     1     146.616 164.859 168.288  0.00  0.00    +0.000 A 
ATOM      7  C4  UNL     1     145.578 164.204 168.903  0.00  0.00    +0.000 A 
ATOM      8  N3  UNL     1     144.467 163.831 168.258  0.00  0.00    +0.000 NA
ATOM      9  C5  UNL     1     144.331 164.093 166.957  0.00  0.00    +0.000 A 
ATOM     10  C6  UNL     1     145.355 164.750 166.306  0.00  0.00    +0.000 A 
ENDBRANCH   2   5
BRANCH   1  11
ATOM     11  N1  UNL     1     149.862 166.040 165.370  0.00  0.00    +0.000 NA
ATOM     12  H1  UNL     1     149.459 166.882 164.941  0.00  0.00    +0.000 HD
ATOM     13  H2  UNL     1     150.393 165.450 164.691  0.00  0.00    +0.000 HD
ENDBRANCH   1  11
TORSDOF 2
ENDMDL
