MODEL 1
REMARK VINA RESULT:      -4.7      0.000      0.000
REMARK  Name = ./3D_structures\o60_MMV002665_3D.pdb
REMARK  4 active torsions:
REMARK  status: ('A' for Active; 'I' for Inactive)
REMARK    1  A    between atoms: N1_1  and  C1_2
REMARK    2  A    between atoms: C1_2  and  C2_3
REMARK    3  A    between atoms: C5_6  and  S1_9
REMARK    4  A    between atoms: S1_9  and  N2_12
REMARK                            x       y       z     vdW  Elec       q    Type
REMARK                         _______ _______ _______ _____ _____    ______ ____
ROOT
ATOM      1  C2  UNL     1     149.330 153.039 170.688  0.00  0.00    +0.000 A 
ATOM      2  C3  UNL     1     148.017 152.679 170.461  0.00  0.00    +0.000 A 
ATOM      3  C4  UNL     1     147.595 152.074 169.294  0.00  0.00    +0.000 A 
ATOM      4  C5  UNL     1     148.517 151.811 168.303  0.00  0.00    +0.000 A 
ATOM      5  C6  UNL     1     149.846 152.154 168.485  0.00  0.00    +0.000 A 
ATOM      6  C7  UNL     1     150.229 152.760 169.669  0.00  0.00    +0.000 A 
ENDROOT
BRANCH   4   7
ATOM      7  S1  UNL     1     148.073 151.047 166.792  0.00  0.00    +0.000 S 
ATOM      8  O1  UNL     1     149.306 150.607 166.065  0.00  0.00    +0.000 OA
ATOM      9  O2  UNL     1     147.258 152.010 165.952  0.00  0.00    +0.000 OA
BRANCH   7  10
ATOM     10  N2  UNL     1     147.057 149.698 167.203  0.00  0.00    +0.000 NA
ATOM     11  H9  UNL     1     146.255 149.726 166.536  0.00  0.00    +0.000 HD
ATOM     12  H10 UNL     1     147.639 148.853 167.102  0.00  0.00    +0.000 HD
ENDBRANCH   7  10
ENDBRANCH   4   7
BRANCH   1  13
ATOM     13  C1  UNL     1     149.774 153.692 171.949  0.00  0.00    +0.000 C 
BRANCH  13  14
ATOM     14  N1  UNL     1     150.990 154.452 171.775  0.00  0.00    +0.000 NA
ATOM     15  H1  UNL     1     151.009 154.901 170.810  0.00  0.00    +0.000 HD
ATOM     16  H2  UNL     1     150.967 155.219 172.505  0.00  0.00    +0.000 HD
ENDBRANCH  13  14
ENDBRANCH   1  13
TORSDOF 4
ENDMDL
MODEL 2
REMARK VINA RESULT:      -4.5      1.149      1.944
REMARK  Name = ./3D_structures\o60_MMV002665_3D.pdb
REMARK  4 active torsions:
REMARK  status: ('A' for Active; 'I' for Inactive)
REMARK    1  A    between atoms: N1_1  and  C1_2
REMARK    2  A    between atoms: C1_2  and  C2_3
REMARK    3  A    between atoms: C5_6  and  S1_9
REMARK    4  A    between atoms: S1_9  and  N2_12
REMARK                            x       y       z     vdW  Elec       q    Type
REMARK                         _______ _______ _______ _____ _____    ______ ____
ROOT
ATOM      1  C2  UNL     1     149.097 153.155 170.898  0.00  0.00    +0.000 A 
ATOM      2  C3  UNL     1     150.081 152.989 169.944  0.00  0.00    +0.000 A 
ATOM      3  C4  UNL     1     149.867 152.332 168.749  0.00  0.00    +0.000 A 
ATOM      4  C5  UNL     1     148.616 151.816 168.483  0.00  0.00    +0.000 A 
ATOM      5  C6  UNL     1     147.597 151.958 169.409  0.00  0.00    +0.000 A 
ATOM      6  C7  UNL     1     147.853 152.622 170.596  0.00  0.00    +0.000 A 
ENDROOT
BRANCH   4   7
ATOM      7  S1  UNL     1     148.252 150.969 166.994  0.00  0.00    +0.000 S 
ATOM      8  O1  UNL     1     147.302 149.845 167.270  0.00  0.00    +0.000 OA
ATOM      9  O2  UNL     1     149.535 150.459 166.369  0.00  0.00    +0.000 OA
BRANCH   7  10
ATOM     10  N2  UNL     1     147.557 152.144 165.918  0.00  0.00    +0.000 NA
ATOM     11  H9  UNL     1     148.338 152.483 165.316  0.00  0.00    +0.000 HD
ATOM     12  H10 UNL     1     146.821 151.654 165.388  0.00  0.00    +0.000 HD
ENDBRANCH   7  10
ENDBRANCH   4   7
BRANCH   1  13
ATOM     13  C1  UNL     1     149.340 153.864 172.183  0.00  0.00    +0.000 C 
BRANCH  13  14
ATOM     14  N1  UNL     1     150.740 154.151 172.395  0.00  0.00    +0.000 NA
ATOM     15  H1  UNL     1     150.901 154.493 173.390  0.00  0.00    +0.000 HD
ATOM     16  H2  UNL     1     151.254 153.234 172.264  0.00  0.00    +0.000 HD
ENDBRANCH  13  14
ENDBRANCH   1  13
TORSDOF 4
ENDMDL
MODEL 3
REMARK VINA RESULT:      -4.3     12.934     13.519
REMARK  Name = ./3D_structures\o60_MMV002665_3D.pdb
REMARK  4 active torsions:
REMARK  status: ('A' for Active; 'I' for Inactive)
REMARK    1  A    between atoms: N1_1  and  C1_2
REMARK    2  A    between atoms: C1_2  and  C2_3
REMARK    3  A    between atoms: C5_6  and  S1_9
REMARK    4  A    between atoms: S1_9  and  N2_12
REMARK                            x       y       z     vdW  Elec       q    Type
REMARK                         _______ _______ _______ _____ _____    ______ ____
ROOT
ATOM      1  C2  UNL     1     145.597 166.183 166.073  0.00  0.00    +0.000 A 
ATOM      2  C3  UNL     1     146.970 166.287 165.982  0.00  0.00    +0.000 A 
ATOM      3  C4  UNL     1     147.832 165.320 166.460  0.00  0.00    +0.000 A 
ATOM      4  C5  UNL     1     147.308 164.192 167.057  0.00  0.00    +0.000 A 
ATOM      5  C6  UNL     1     145.937 164.042 167.170  0.00  0.00    +0.000 A 
ATOM      6  C7  UNL     1     145.107 165.035 166.679  0.00  0.00    +0.000 A 
ENDROOT
BRANCH   4   7
ATOM      7  S1  UNL     1     148.323 162.914 167.690  0.00  0.00    +0.000 S 
ATOM      8  O1  UNL     1     149.745 163.147 167.283  0.00  0.00    +0.000 OA
ATOM      9  O2  UNL     1     147.825 161.571 167.194  0.00  0.00    +0.000 OA
BRANCH   7  10
ATOM     10  N2  UNL     1     148.140 162.952 169.419  0.00  0.00    +0.000 NA
ATOM     11  H9  UNL     1     148.520 162.046 169.770  0.00  0.00    +0.000 HD
ATOM     12  H10 UNL     1     148.671 163.770 169.750  0.00  0.00    +0.000 HD
ENDBRANCH   7  10
ENDBRANCH   4   7
BRANCH   1  13
ATOM     13  C1  UNL     1     144.678 167.232 165.555  0.00  0.00    +0.000 C 
BRANCH  13  14
ATOM     14  N1  UNL     1     145.200 168.564 165.753  0.00  0.00    +0.000 NA
ATOM     15  H1  UNL     1     144.494 169.290 165.425  0.00  0.00    +0.000 HD
ATOM     16  H2  UNL     1     145.341 168.675 166.797  0.00  0.00    +0.000 HD
ENDBRANCH  13  14
ENDBRANCH   1  13
TORSDOF 4
ENDMDL
MODEL 4
REMARK VINA RESULT:      -4.3     13.138     13.852
REMARK  Name = ./3D_structures\o60_MMV002665_3D.pdb
REMARK  4 active torsions:
REMARK  status: ('A' for Active; 'I' for Inactive)
REMARK    1  A    between atoms: N1_1  and  C1_2
REMARK    2  A    between atoms: C1_2  and  C2_3
REMARK    3  A    between atoms: C5_6  and  S1_9
REMARK    4  A    between atoms: S1_9  and  N2_12
REMARK                            x       y       z     vdW  Elec       q    Type
REMARK                         _______ _______ _______ _____ _____    ______ ____
ROOT
ATOM      1  C2  UNL     1     143.863 164.747 166.204  0.00  0.00    +0.000 A 
ATOM      2  C3  UNL     1     143.859 163.762 167.170  0.00  0.00    +0.000 A 
ATOM      3  C4  UNL     1     144.878 163.606 168.089  0.00  0.00    +0.000 A 
ATOM      4  C5  UNL     1     145.953 164.469 168.051  0.00  0.00    +0.000 A 
ATOM      5  C6  UNL     1     146.001 165.474 167.100  0.00  0.00    +0.000 A 
ATOM      6  C7  UNL     1     144.960 165.596 166.196  0.00  0.00    +0.000 A 
ENDROOT
BRANCH   4   7
ATOM      7  S1  UNL     1     147.289 164.348 169.176  0.00  0.00    +0.000 S 
ATOM      8  O1  UNL     1     148.503 165.000 168.593  0.00  0.00    +0.000 OA
ATOM      9  O2  UNL     1     147.554 162.891 169.500  0.00  0.00    +0.000 OA
BRANCH   7  10
ATOM     10  N2  UNL     1     146.776 165.140 170.636  0.00  0.00    +0.000 NA
ATOM     11  H9  UNL     1     145.863 164.707 170.895  0.00  0.00    +0.000 HD
ATOM     12  H10 UNL     1     147.516 164.974 171.333  0.00  0.00    +0.000 HD
ENDBRANCH   7  10
ENDBRANCH   4   7
BRANCH   1  13
ATOM     13  C1  UNL     1     142.760 164.906 165.218  0.00  0.00    +0.000 C 
BRANCH  13  14
ATOM     14  N1  UNL     1     142.087 166.177 165.348  0.00  0.00    +0.000 NA
ATOM     15  H1  UNL     1     142.627 166.815 166.006  0.00  0.00    +0.000 HD
ATOM     16  H2  UNL     1     142.083 166.611 164.381  0.00  0.00    +0.000 HD
ENDBRANCH  13  14
ENDBRANCH   1  13
TORSDOF 4
ENDMDL
MODEL 5
REMARK VINA RESULT:      -4.3      9.772     10.482
REMARK  Name = ./3D_structures\o60_MMV002665_3D.pdb
REMARK  4 active torsions:
REMARK  status: ('A' for Active; 'I' for Inactive)
REMARK    1  A    between atoms: N1_1  and  C1_2
REMARK    2  A    between atoms: C1_2  and  C2_3
REMARK    3  A    between atoms: C5_6  and  S1_9
REMARK    4  A    between atoms: S1_9  and  N2_12
REMARK                            x       y       z     vdW  Elec       q    Type
REMARK                         _______ _______ _______ _____ _____    ______ ____
ROOT
ATOM      1  C2  UNL     1     157.701 158.192 169.723  0.00  0.00    +0.000 A 
ATOM      2  C3  UNL     1     158.759 158.474 168.882  0.00  0.00    +0.000 A 
ATOM      3  C4  UNL     1     158.821 158.032 167.576  0.00  0.00    +0.000 A 
ATOM      4  C5  UNL     1     157.783 157.274 167.075  0.00  0.00    +0.000 A 
ATOM      5  C6  UNL     1     156.700 156.966 167.880  0.00  0.00    +0.000 A 
ATOM      6  C7  UNL     1     156.676 157.428 169.185  0.00  0.00    +0.000 A 
ENDROOT
BRANCH   4   7
ATOM      7  S1  UNL     1     157.775 156.671 165.432  0.00  0.00    +0.000 S 
ATOM      8  O1  UNL     1     158.927 155.737 165.229  0.00  0.00    +0.000 OA
ATOM      9  O2  UNL     1     157.835 157.833 164.460  0.00  0.00    +0.000 OA
BRANCH   7  10
ATOM     10  N2  UNL     1     156.251 155.863 165.212  0.00  0.00    +0.000 NA
ATOM     11  H9  UNL     1     156.363 155.259 164.369  0.00  0.00    +0.000 HD
ATOM     12  H10 UNL     1     156.078 155.327 166.075  0.00  0.00    +0.000 HD
ENDBRANCH   7  10
ENDBRANCH   4   7
BRANCH   1  13
ATOM     13  C1  UNL     1     157.646 158.674 171.129  0.00  0.00    +0.000 C 
BRANCH  13  14
ATOM     14  N1  UNL     1     156.679 157.948 171.920  0.00  0.00    +0.000 NA
ATOM     15  H1  UNL     1     155.792 158.524 172.038  0.00  0.00    +0.000 HD
ATOM     16  H2  UNL     1     156.444 157.073 171.370  0.00  0.00    +0.000 HD
ENDBRANCH  13  14
ENDBRANCH   1  13
TORSDOF 4
ENDMDL
MODEL 6
REMARK VINA RESULT:      -4.1     12.475     12.918
REMARK  Name = ./3D_structures\o60_MMV002665_3D.pdb
REMARK  4 active torsions:
REMARK  status: ('A' for Active; 'I' for Inactive)
REMARK    1  A    between atoms: N1_1  and  C1_2
REMARK    2  A    between atoms: C1_2  and  C2_3
REMARK    3  A    between atoms: C5_6  and  S1_9
REMARK    4  A    between atoms: S1_9  and  N2_12
REMARK                            x       y       z     vdW  Elec       q    Type
REMARK                         _______ _______ _______ _____ _____    ______ ____
ROOT
ATOM      1  C2  UNL     1     146.047 165.944 166.246  0.00  0.00    +0.000 A 
ATOM      2  C3  UNL     1     147.306 165.397 166.387  0.00  0.00    +0.000 A 
ATOM      3  C4  UNL     1     147.528 164.154 166.945  0.00  0.00    +0.000 A 
ATOM      4  C5  UNL     1     146.450 163.414 167.384  0.00  0.00    +0.000 A 
ATOM      5  C6  UNL     1     145.167 163.921 167.264  0.00  0.00    +0.000 A 
ATOM      6  C7  UNL     1     144.987 165.172 166.699  0.00  0.00    +0.000 A 
ENDROOT
BRANCH   4   7
ATOM      7  S1  UNL     1     146.635 161.829 168.104  0.00  0.00    +0.000 S 
ATOM      8  O1  UNL     1     145.607 161.636 169.175  0.00  0.00    +0.000 OA
ATOM      9  O2  UNL     1     148.037 161.680 168.659  0.00  0.00    +0.000 OA
BRANCH   7  10
ATOM     10  N2  UNL     1     146.440 160.678 166.816  0.00  0.00    +0.000 NA
ATOM     11  H9  UNL     1     147.403 160.379 166.547  0.00  0.00    +0.000 HD
ATOM     12  H10 UNL     1     145.867 159.911 167.195  0.00  0.00    +0.000 HD
ENDBRANCH   7  10
ENDBRANCH   4   7
BRANCH   1  13
ATOM     13  C1  UNL     1     145.820 167.285 165.643  0.00  0.00    +0.000 C 
BRANCH  13  14
ATOM     14  N1  UNL     1     144.425 167.531 165.361  0.00  0.00    +0.000 NA
ATOM     15  H1  UNL     1     143.818 167.165 166.156  0.00  0.00    +0.000 HD
ATOM     16  H2  UNL     1     144.315 168.583 165.306  0.00  0.00    +0.000 HD
ENDBRANCH  13  14
ENDBRANCH   1  13
TORSDOF 4
ENDMDL
MODEL 7
REMARK VINA RESULT:      -4.0     12.374     13.151
REMARK  Name = ./3D_structures\o60_MMV002665_3D.pdb
REMARK  4 active torsions:
REMARK  status: ('A' for Active; 'I' for Inactive)
REMARK    1  A    between atoms: N1_1  and  C1_2
REMARK    2  A    between atoms: C1_2  and  C2_3
REMARK    3  A    between atoms: C5_6  and  S1_9
REMARK    4  A    between atoms: S1_9  and  N2_12
REMARK                            x       y       z     vdW  Elec       q    Type
REMARK                         _______ _______ _______ _____ _____    ______ ____
ROOT
ATOM      1  C2  UNL     1     149.563 165.048 166.316  0.00  0.00    +0.000 A 
ATOM      2  C3  UNL     1     149.656 163.927 167.117  0.00  0.00    +0.000 A 
ATOM      3  C4  UNL     1     148.670 163.557 168.009  0.00  0.00    +0.000 A 
ATOM      4  C5  UNL     1     147.535 164.334 168.114  0.00  0.00    +0.000 A 
ATOM      5  C6  UNL     1     147.396 165.467 167.332  0.00  0.00    +0.000 A 
ATOM      6  C7  UNL     1     148.408 165.804 166.449  0.00  0.00    +0.000 A 
ENDROOT
BRANCH   4   7
ATOM      7  S1  UNL     1     146.233 163.941 169.217  0.00  0.00    +0.000 S 
ATOM      8  O1  UNL     1     146.319 162.499 169.609  0.00  0.00    +0.000 OA
ATOM      9  O2  UNL     1     144.900 164.252 168.567  0.00  0.00    +0.000 OA
BRANCH   7  10
ATOM     10  N2  UNL     1     146.420 164.989 170.591  0.00  0.00    +0.000 NA
ATOM     11  H9  UNL     1     145.489 165.021 171.060  0.00  0.00    +0.000 HD
ATOM     12  H10 UNL     1     147.156 164.570 171.179  0.00  0.00    +0.000 HD
ENDBRANCH   7  10
ENDBRANCH   4   7
BRANCH   1  13
ATOM     13  C1  UNL     1     150.633 165.438 165.358  0.00  0.00    +0.000 C 
BRANCH  13  14
ATOM     14  N1  UNL     1     151.410 166.560 165.831  0.00  0.00    +0.000 NA
ATOM     15  H1  UNL     1     152.165 166.810 165.124  0.00  0.00    +0.000 HD
ATOM     16  H2  UNL     1     150.737 167.374 165.911  0.00  0.00    +0.000 HD
ENDBRANCH  13  14
ENDBRANCH   1  13
TORSDOF 4
ENDMDL
MODEL 8
REMARK VINA RESULT:      -4.0      9.663     10.957
REMARK  Name = ./3D_structures\o60_MMV002665_3D.pdb
REMARK  4 active torsions:
REMARK  status: ('A' for Active; 'I' for Inactive)
REMARK    1  A    between atoms: N1_1  and  C1_2
REMARK    2  A    between atoms: C1_2  and  C2_3
REMARK    3  A    between atoms: C5_6  and  S1_9
REMARK    4  A    between atoms: S1_9  and  N2_12
REMARK                            x       y       z     vdW  Elec       q    Type
REMARK                         _______ _______ _______ _____ _____    ______ ____
ROOT
ATOM      1  C2  UNL     1     157.165 157.080 167.042  0.00  0.00    +0.000 A 
ATOM      2  C3  UNL     1     158.169 157.648 167.799  0.00  0.00    +0.000 A 
ATOM      3  C4  UNL     1     157.949 158.208 169.042  0.00  0.00    +0.000 A 
ATOM      4  C5  UNL     1     156.671 158.205 169.561  0.00  0.00    +0.000 A 
ATOM      5  C6  UNL     1     155.631 157.646 168.838  0.00  0.00    +0.000 A 
ATOM      6  C7  UNL     1     155.894 157.095 167.596  0.00  0.00    +0.000 A 
ENDROOT
BRANCH   4   7
ATOM      7  S1  UNL     1     156.297 158.891 171.128  0.00  0.00    +0.000 S 
ATOM      8  O1  UNL     1     156.613 157.899 172.204  0.00  0.00    +0.000 OA
ATOM      9  O2  UNL     1     154.839 159.301 171.172  0.00  0.00    +0.000 OA
BRANCH   7  10
ATOM     10  N2  UNL     1     157.266 160.327 171.279  0.00  0.00    +0.000 NA
ATOM     11  H9  UNL     1     157.107 160.876 170.406  0.00  0.00    +0.000 HD
ATOM     12  H10 UNL     1     156.939 160.811 172.127  0.00  0.00    +0.000 HD
ENDBRANCH   7  10
ENDBRANCH   4   7
BRANCH   1  13
ATOM     13  C1  UNL     1     157.415 156.480 165.703  0.00  0.00    +0.000 C 
BRANCH  13  14
ATOM     14  N1  UNL     1     156.250 155.804 165.180  0.00  0.00    +0.000 NA
ATOM     15  H1  UNL     1     155.581 156.507 164.743  0.00  0.00    +0.000 HD
ATOM     16  H2  UNL     1     156.601 155.153 164.422  0.00  0.00    +0.000 HD
ENDBRANCH  13  14
ENDBRANCH   1  13
TORSDOF 4
ENDMDL
MODEL 9
REMARK VINA RESULT:      -3.9     10.501     11.719
REMARK  Name = ./3D_structures\o60_MMV002665_3D.pdb
REMARK  4 active torsions:
REMARK  status: ('A' for Active; 'I' for Inactive)
REMARK    1  A    between atoms: N1_1  and  C1_2
REMARK    2  A    between atoms: C1_2  and  C2_3
REMARK    3  A    between atoms: C5_6  and  S1_9
REMARK    4  A    between atoms: S1_9  and  N2_12
REMARK                            x       y       z     vdW  Elec       q    Type
REMARK                         _______ _______ _______ _____ _____    ______ ____
ROOT
ATOM      1  C2  UNL     1     159.338 157.962 167.124  0.00  0.00    +0.000 A 
ATOM      2  C3  UNL     1     159.671 158.527 168.339  0.00  0.00    +0.000 A 
ATOM      3  C4  UNL     1     158.806 158.563 169.414  0.00  0.00    +0.000 A 
ATOM      4  C5  UNL     1     157.549 158.011 169.282  0.00  0.00    +0.000 A 
ATOM      5  C6  UNL     1     157.170 157.432 168.084  0.00  0.00    +0.000 A 
ATOM      6  C7  UNL     1     158.066 157.416 167.029  0.00  0.00    +0.000 A 
ENDROOT
BRANCH   4   7
ATOM      7  S1  UNL     1     156.387 158.010 170.592  0.00  0.00    +0.000 S 
ATOM      8  O1  UNL     1     155.367 159.081 170.364  0.00  0.00    +0.000 OA
ATOM      9  O2  UNL     1     157.105 158.211 171.912  0.00  0.00    +0.000 OA
BRANCH   7  10
ATOM     10  N2  UNL     1     155.664 156.429 170.606  0.00  0.00    +0.000 NA
ATOM     11  H9  UNL     1     156.410 155.772 170.924  0.00  0.00    +0.000 HD
ATOM     12  H10 UNL     1     154.865 156.480 171.255  0.00  0.00    +0.000 HD
ENDBRANCH   7  10
ENDBRANCH   4   7
BRANCH   1  13
ATOM     13  C1  UNL     1     160.278 157.929 165.972  0.00  0.00    +0.000 C 
BRANCH  13  14
ATOM     14  N1  UNL     1     161.593 157.466 166.349  0.00  0.00    +0.000 NA
ATOM     15  H1  UNL     1     161.520 156.733 167.117  0.00  0.00    +0.000 HD
ATOM     16  H2  UNL     1     162.007 157.014 165.486  0.00  0.00    +0.000 HD
ENDBRANCH  13  14
ENDBRANCH   1  13
TORSDOF 4
ENDMDL
