MODEL 1
REMARK VINA RESULT:      -5.6      0.000      0.000
REMARK  Name = ./3D_structures\o65_MMV1580849_3D.pdb
REMARK  7 active torsions:
REMARK  status: ('A' for Active; 'I' for Inactive)
REMARK    1  A    between atoms: C1_1  and  O1_2
REMARK    2  A    between atoms: O1_2  and  C2_3
REMARK    3  A    between atoms: C4_5  and  C5_6
REMARK    4  A    between atoms: C5_6  and  C6_7
REMARK    5  A    between atoms: C11_16  and  C12_17
REMARK    6  A    between atoms: C12_17  and  C13_18
REMARK    7  A    between atoms: C15_20  and  O2_21
REMARK                            x       y       z     vdW  Elec       q    Type
REMARK                         _______ _______ _______ _____ _____    ______ ____
ROOT
ATOM      1  C2  UNL     1     154.654 158.253 166.368  0.00  0.00    +0.000 A 
ATOM      2  C3  UNL     1     154.152 159.329 165.687  0.00  0.00    +0.000 A 
ATOM      3  C4  UNL     1     153.244 160.226 166.265  0.00  0.00    +0.000 A 
ATOM      4  C10 UNL     1     152.862 160.001 167.603  0.00  0.00    +0.000 A 
ATOM      5  C11 UNL     1     153.337 158.948 168.307  0.00  0.00    +0.000 A 
ATOM      6  C15 UNL     1     154.191 158.104 167.725  0.00  0.00    +0.000 A 
ENDROOT
BRANCH   1   8
ATOM      7  C1  UNL     1     156.290 156.390 165.675  0.00  0.00    +0.000 C 
ATOM      8  O1  UNL     1     155.473 157.315 166.022  0.00  0.00    +0.000 OA
ENDBRANCH   1   8
BRANCH   6   9
ATOM      9  O2  UNL     1     154.641 156.942 168.383  0.00  0.00    +0.000 OA
ATOM     10  H18 UNL     1     155.132 157.056 169.301  0.00  0.00    +0.000 HD
ENDBRANCH   6   9
BRANCH   3  11
ATOM     11  C5  UNL     1     152.405 161.098 165.507  0.00  0.00    +0.000 C 
BRANCH  11  12
ATOM     12  C6  UNL     1     151.991 162.432 165.569  0.00  0.00    +0.000 A 
ATOM     13  C7  UNL     1     151.197 162.853 166.677  0.00  0.00    +0.000 A 
ATOM     14  N1  UNL     1     150.606 164.008 166.645  0.00  0.00    +0.000 NA
ATOM     15  C8  UNL     1     150.721 164.844 165.575  0.00  0.00    +0.000 A 
ATOM     16  N2  UNL     1     149.891 166.012 165.557  0.00  0.00    +0.000 N 
ATOM     17  N3  UNL     1     151.446 164.499 164.542  0.00  0.00    +0.000 NA
ATOM     18  C9  UNL     1     152.108 163.301 164.485  0.00  0.00    +0.000 A 
ATOM     19  N4  UNL     1     152.862 162.951 163.326  0.00  0.00    +0.000 N 
ATOM     20  H8  UNL     1     150.162 166.921 165.246  0.00  0.00    +0.000 HD
ATOM     21  H9  UNL     1     148.909 165.802 165.899  0.00  0.00    +0.000 HD
ATOM     22  H10 UNL     1     153.860 163.183 163.203  0.00  0.00    +0.000 HD
ATOM     23  H11 UNL     1     152.380 162.427 162.533  0.00  0.00    +0.000 HD
ENDBRANCH  11  12
ENDBRANCH   3  11
BRANCH   5  24
ATOM     24  C12 UNL     1     153.017 158.681 169.738  0.00  0.00    +0.000 C 
BRANCH  24  25
ATOM     25  C13 UNL     1     151.524 158.842 169.956  0.00  0.00    +0.000 C 
ATOM     26  C14 UNL     1     150.735 157.846 170.149  0.00  0.00    +0.000 C 
ENDBRANCH  24  25
ENDBRANCH   5  24
TORSDOF 6
ENDMDL
MODEL 2
REMARK VINA RESULT:      -5.4      0.627      1.113
REMARK  Name = ./3D_structures\o65_MMV1580849_3D.pdb
REMARK  7 active torsions:
REMARK  status: ('A' for Active; 'I' for Inactive)
REMARK    1  A    between atoms: C1_1  and  O1_2
REMARK    2  A    between atoms: O1_2  and  C2_3
REMARK    3  A    between atoms: C4_5  and  C5_6
REMARK    4  A    between atoms: C5_6  and  C6_7
REMARK    5  A    between atoms: C11_16  and  C12_17
REMARK    6  A    between atoms: C12_17  and  C13_18
REMARK    7  A    between atoms: C15_20  and  O2_21
REMARK                            x       y       z     vdW  Elec       q    Type
REMARK                         _______ _______ _______ _____ _____    ______ ____
ROOT
ATOM      1  C2  UNL     1     154.649 158.262 166.363  0.00  0.00    +0.000 A 
ATOM      2  C3  UNL     1     154.152 159.339 165.682  0.00  0.00    +0.000 A 
ATOM      3  C4  UNL     1     153.242 160.237 166.257  0.00  0.00    +0.000 A 
ATOM      4  C10 UNL     1     152.852 160.010 167.592  0.00  0.00    +0.000 A 
ATOM      5  C11 UNL     1     153.323 158.955 168.297  0.00  0.00    +0.000 A 
ATOM      6  C15 UNL     1     154.178 158.111 167.718  0.00  0.00    +0.000 A 
ENDROOT
BRANCH   1   8
ATOM      7  C1  UNL     1     156.287 156.396 165.682  0.00  0.00    +0.000 C 
ATOM      8  O1  UNL     1     155.468 157.322 166.020  0.00  0.00    +0.000 OA
ENDBRANCH   1   8
BRANCH   6   9
ATOM      9  O2  UNL     1     154.623 156.947 168.377  0.00  0.00    +0.000 OA
ATOM     10  H18 UNL     1     153.998 156.524 169.103  0.00  0.00    +0.000 HD
ENDBRANCH   6   9
BRANCH   3  11
ATOM     11  C5  UNL     1     152.409 161.111 165.496  0.00  0.00    +0.000 C 
BRANCH  11  12
ATOM     12  C6  UNL     1     151.990 162.444 165.562  0.00  0.00    +0.000 A 
ATOM     13  C7  UNL     1     151.190 162.857 166.669  0.00  0.00    +0.000 A 
ATOM     14  N1  UNL     1     150.595 164.010 166.640  0.00  0.00    +0.000 NA
ATOM     15  C8  UNL     1     150.712 164.851 165.574  0.00  0.00    +0.000 A 
ATOM     16  N2  UNL     1     149.878 166.016 165.558  0.00  0.00    +0.000 N 
ATOM     17  N3  UNL     1     151.442 164.514 164.542  0.00  0.00    +0.000 NA
ATOM     18  C9  UNL     1     152.108 163.318 164.482  0.00  0.00    +0.000 A 
ATOM     19  N4  UNL     1     152.867 162.975 163.324  0.00  0.00    +0.000 N 
ATOM     20  H8  UNL     1     150.147 166.928 165.252  0.00  0.00    +0.000 HD
ATOM     21  H9  UNL     1     148.895 165.802 165.895  0.00  0.00    +0.000 HD
ATOM     22  H10 UNL     1     153.865 163.212 163.207  0.00  0.00    +0.000 HD
ATOM     23  H11 UNL     1     152.391 162.453 162.527  0.00  0.00    +0.000 HD
ENDBRANCH  11  12
ENDBRANCH   3  11
BRANCH   5  24
ATOM     24  C12 UNL     1     152.995 158.687 169.726  0.00  0.00    +0.000 C 
BRANCH  24  25
ATOM     25  C13 UNL     1     153.613 159.768 170.593  0.00  0.00    +0.000 C 
ATOM     26  C14 UNL     1     154.750 159.631 171.176  0.00  0.00    +0.000 C 
ENDBRANCH  24  25
ENDBRANCH   5  24
TORSDOF 6
ENDMDL
MODEL 3
REMARK VINA RESULT:      -5.4      8.121      9.880
REMARK  Name = ./3D_structures\o65_MMV1580849_3D.pdb
REMARK  7 active torsions:
REMARK  status: ('A' for Active; 'I' for Inactive)
REMARK    1  A    between atoms: C1_1  and  O1_2
REMARK    2  A    between atoms: O1_2  and  C2_3
REMARK    3  A    between atoms: C4_5  and  C5_6
REMARK    4  A    between atoms: C5_6  and  C6_7
REMARK    5  A    between atoms: C11_16  and  C12_17
REMARK    6  A    between atoms: C12_17  and  C13_18
REMARK    7  A    between atoms: C15_20  and  O2_21
REMARK                            x       y       z     vdW  Elec       q    Type
REMARK                         _______ _______ _______ _____ _____    ______ ____
ROOT
ATOM      1  C2  UNL     1     143.580 161.976 161.954  0.00  0.00    +0.000 A 
ATOM      2  C3  UNL     1     143.928 162.852 162.946  0.00  0.00    +0.000 A 
ATOM      3  C4  UNL     1     144.328 162.424 164.219  0.00  0.00    +0.000 A 
ATOM      4  C10 UNL     1     144.382 161.036 164.458  0.00  0.00    +0.000 A 
ATOM      5  C11 UNL     1     144.044 160.140 163.501  0.00  0.00    +0.000 A 
ATOM      6  C15 UNL     1     143.656 160.579 162.303  0.00  0.00    +0.000 A 
ENDROOT
BRANCH   1   8
ATOM      7  C1  UNL     1     142.770 162.347 159.538  0.00  0.00    +0.000 C 
ATOM      8  O1  UNL     1     143.175 162.159 160.740  0.00  0.00    +0.000 OA
ENDBRANCH   1   8
BRANCH   6   9
ATOM      9  O2  UNL     1     143.205 159.691 161.304  0.00  0.00    +0.000 OA
ATOM     10  H18 UNL     1     143.885 159.398 160.564  0.00  0.00    +0.000 HD
ENDBRANCH   6   9
BRANCH   3  11
ATOM     11  C5  UNL     1     144.311 163.262 165.374  0.00  0.00    +0.000 C 
BRANCH  11  12
ATOM     12  C6  UNL     1     144.497 164.619 165.659  0.00  0.00    +0.000 A 
ATOM     13  C7  UNL     1     143.407 165.517 165.456  0.00  0.00    +0.000 A 
ATOM     14  N1  UNL     1     143.614 166.798 165.482  0.00  0.00    +0.000 NA
ATOM     15  C8  UNL     1     144.853 167.321 165.704  0.00  0.00    +0.000 A 
ATOM     16  N2  UNL     1     145.013 168.735 165.536  0.00  0.00    +0.000 N 
ATOM     17  N3  UNL     1     145.878 166.532 165.902  0.00  0.00    +0.000 NA
ATOM     18  C9  UNL     1     145.758 165.167 165.892  0.00  0.00    +0.000 A 
ATOM     19  N4  UNL     1     146.906 164.343 166.081  0.00  0.00    +0.000 N 
ATOM     20  H8  UNL     1     145.564 169.336 166.112  0.00  0.00    +0.000 HD
ATOM     21  H9  UNL     1     144.484 169.094 164.690  0.00  0.00    +0.000 HD
ATOM     22  H10 UNL     1     147.232 164.023 167.007  0.00  0.00    +0.000 HD
ATOM     23  H11 UNL     1     147.472 164.039 165.232  0.00  0.00    +0.000 HD
ENDBRANCH  11  12
ENDBRANCH   3  11
BRANCH   5  24
ATOM     24  C12 UNL     1     144.129 158.662 163.667  0.00  0.00    +0.000 C 
BRANCH  24  25
ATOM     25  C13 UNL     1     145.540 158.284 164.080  0.00  0.00    +0.000 C 
ATOM     26  C14 UNL     1     145.803 157.635 165.157  0.00  0.00    +0.000 C 
ENDBRANCH  24  25
ENDBRANCH   5  24
TORSDOF 6
ENDMDL
MODEL 4
REMARK VINA RESULT:      -5.2      1.427      2.188
REMARK  Name = ./3D_structures\o65_MMV1580849_3D.pdb
REMARK  7 active torsions:
REMARK  status: ('A' for Active; 'I' for Inactive)
REMARK    1  A    between atoms: C1_1  and  O1_2
REMARK    2  A    between atoms: O1_2  and  C2_3
REMARK    3  A    between atoms: C4_5  and  C5_6
REMARK    4  A    between atoms: C5_6  and  C6_7
REMARK    5  A    between atoms: C11_16  and  C12_17
REMARK    6  A    between atoms: C12_17  and  C13_18
REMARK    7  A    between atoms: C15_20  and  O2_21
REMARK                            x       y       z     vdW  Elec       q    Type
REMARK                         _______ _______ _______ _____ _____    ______ ____
ROOT
ATOM      1  C2  UNL     1     156.004 159.294 165.435  0.00  0.00    +0.000 A 
ATOM      2  C3  UNL     1     155.021 160.175 165.072  0.00  0.00    +0.000 A 
ATOM      3  C4  UNL     1     153.784 160.232 165.728  0.00  0.00    +0.000 A 
ATOM      4  C10 UNL     1     153.573 159.353 166.808  0.00  0.00    +0.000 A 
ATOM      5  C11 UNL     1     154.521 158.468 167.195  0.00  0.00    +0.000 A 
ATOM      6  C15 UNL     1     155.684 158.429 166.543  0.00  0.00    +0.000 A 
ENDROOT
BRANCH   1   8
ATOM      7  C1  UNL     1     158.355 158.850 164.484  0.00  0.00    +0.000 C 
ATOM      8  O1  UNL     1     157.186 159.071 164.962  0.00  0.00    +0.000 OA
ENDBRANCH   1   8
BRANCH   6   9
ATOM      9  O2  UNL     1     156.666 157.463 166.846  0.00  0.00    +0.000 OA
ATOM     10  H18 UNL     1     156.431 156.456 166.685  0.00  0.00    +0.000 HD
ENDBRANCH   6   9
BRANCH   3  11
ATOM     11  C5  UNL     1     152.616 160.824 165.158  0.00  0.00    +0.000 C 
BRANCH  11  12
ATOM     12  C6  UNL     1     152.034 162.094 165.101  0.00  0.00    +0.000 A 
ATOM     13  C7  UNL     1     152.338 162.938 163.991  0.00  0.00    +0.000 A 
ATOM     14  N1  UNL     1     152.008 164.193 164.027  0.00  0.00    +0.000 NA
ATOM     15  C8  UNL     1     151.372 164.738 165.101  0.00  0.00    +0.000 A 
ATOM     16  N2  UNL     1     151.213 166.162 165.122  0.00  0.00    +0.000 N 
ATOM     17  N3  UNL     1     151.069 163.997 166.136  0.00  0.00    +0.000 NA
ATOM     18  C9  UNL     1     151.376 162.663 166.191  0.00  0.00    +0.000 A 
ATOM     19  N4  UNL     1     151.056 161.899 167.352  0.00  0.00    +0.000 N 
ATOM     20  H8  UNL     1     150.407 166.659 165.439  0.00  0.00    +0.000 HD
ATOM     21  H9  UNL     1     152.082 166.661 164.773  0.00  0.00    +0.000 HD
ATOM     22  H10 UNL     1     150.158 161.407 167.480  0.00  0.00    +0.000 HD
ATOM     23  H11 UNL     1     151.770 161.829 168.140  0.00  0.00    +0.000 HD
ENDBRANCH  11  12
ENDBRANCH   3  11
BRANCH   5  24
ATOM     24  C12 UNL     1     154.386 157.548 168.360  0.00  0.00    +0.000 C 
BRANCH  24  25
ATOM     25  C13 UNL     1     153.482 158.185 169.399  0.00  0.00    +0.000 C 
ATOM     26  C14 UNL     1     152.408 157.624 169.829  0.00  0.00    +0.000 C 
ENDBRANCH  24  25
ENDBRANCH   5  24
TORSDOF 6
ENDMDL
MODEL 5
REMARK VINA RESULT:      -5.2      4.152      6.391
REMARK  Name = ./3D_structures\o65_MMV1580849_3D.pdb
REMARK  7 active torsions:
REMARK  status: ('A' for Active; 'I' for Inactive)
REMARK    1  A    between atoms: C1_1  and  O1_2
REMARK    2  A    between atoms: O1_2  and  C2_3
REMARK    3  A    between atoms: C4_5  and  C5_6
REMARK    4  A    between atoms: C5_6  and  C6_7
REMARK    5  A    between atoms: C11_16  and  C12_17
REMARK    6  A    between atoms: C12_17  and  C13_18
REMARK    7  A    between atoms: C15_20  and  O2_21
REMARK                            x       y       z     vdW  Elec       q    Type
REMARK                         _______ _______ _______ _____ _____    ______ ____
ROOT
ATOM      1  C2  UNL     1     150.373 163.890 169.903  0.00  0.00    +0.000 A 
ATOM      2  C3  UNL     1     149.175 163.959 169.246  0.00  0.00    +0.000 A 
ATOM      3  C4  UNL     1     148.994 163.440 167.956  0.00  0.00    +0.000 A 
ATOM      4  C10 UNL     1     150.097 162.815 167.341  0.00  0.00    +0.000 A 
ATOM      5  C11 UNL     1     151.297 162.729 167.959  0.00  0.00    +0.000 A 
ATOM      6  C15 UNL     1     151.441 163.243 169.182  0.00  0.00    +0.000 A 
ENDROOT
BRANCH   1   8
ATOM      7  C1  UNL     1     151.128 164.721 172.220  0.00  0.00    +0.000 C 
ATOM      8  O1  UNL     1     150.749 164.311 171.065  0.00  0.00    +0.000 OA
ENDBRANCH   1   8
BRANCH   6   9
ATOM      9  O2  UNL     1     152.693 163.262 169.830  0.00  0.00    +0.000 OA
ATOM     10  H18 UNL     1     153.379 162.505 169.596  0.00  0.00    +0.000 HD
ENDBRANCH   6   9
BRANCH   3  11
ATOM     11  C5  UNL     1     147.925 163.828 167.093  0.00  0.00    +0.000 C 
BRANCH  11  12
ATOM     12  C6  UNL     1     147.185 164.985 166.834  0.00  0.00    +0.000 A 
ATOM     13  C7  UNL     1     145.774 164.959 167.050  0.00  0.00    +0.000 A 
ATOM     14  N1  UNL     1     145.036 165.927 166.600  0.00  0.00    +0.000 NA
ATOM     15  C8  UNL     1     145.569 166.982 165.922  0.00  0.00    +0.000 A 
ATOM     16  N2  UNL     1     144.657 167.904 165.312  0.00  0.00    +0.000 N 
ATOM     17  N3  UNL     1     146.858 167.048 165.710  0.00  0.00    +0.000 NA
ATOM     18  C9  UNL     1     147.718 166.075 166.146  0.00  0.00    +0.000 A 
ATOM     19  N4  UNL     1     149.113 166.170 165.866  0.00  0.00    +0.000 N 
ATOM     20  H8  UNL     1     144.760 168.897 165.279  0.00  0.00    +0.000 HD
ATOM     21  H9  UNL     1     143.838 167.406 164.859  0.00  0.00    +0.000 HD
ATOM     22  H10 UNL     1     149.788 166.645 166.486  0.00  0.00    +0.000 HD
ATOM     23  H11 UNL     1     149.493 165.737 164.969  0.00  0.00    +0.000 HD
ENDBRANCH  11  12
ENDBRANCH   3  11
BRANCH   5  24
ATOM     24  C12 UNL     1     152.487 162.036 167.390  0.00  0.00    +0.000 C 
BRANCH  24  25
ATOM     25  C13 UNL     1     152.044 161.127 166.258  0.00  0.00    +0.000 C 
ATOM     26  C14 UNL     1     152.854 160.667 165.373  0.00  0.00    +0.000 C 
ENDBRANCH  24  25
ENDBRANCH   5  24
TORSDOF 6
ENDMDL
MODEL 6
REMARK VINA RESULT:      -5.1      4.879      6.665
REMARK  Name = ./3D_structures\o65_MMV1580849_3D.pdb
REMARK  7 active torsions:
REMARK  status: ('A' for Active; 'I' for Inactive)
REMARK    1  A    between atoms: C1_1  and  O1_2
REMARK    2  A    between atoms: O1_2  and  C2_3
REMARK    3  A    between atoms: C4_5  and  C5_6
REMARK    4  A    between atoms: C5_6  and  C6_7
REMARK    5  A    between atoms: C11_16  and  C12_17
REMARK    6  A    between atoms: C12_17  and  C13_18
REMARK    7  A    between atoms: C15_20  and  O2_21
REMARK                            x       y       z     vdW  Elec       q    Type
REMARK                         _______ _______ _______ _____ _____    ______ ____
ROOT
ATOM      1  C2  UNL     1     158.552 158.059 168.238  0.00  0.00    +0.000 A 
ATOM      2  C3  UNL     1     158.609 158.341 169.576  0.00  0.00    +0.000 A 
ATOM      3  C4  UNL     1     157.466 158.376 170.386  0.00  0.00    +0.000 A 
ATOM      4  C10 UNL     1     156.225 158.092 169.781  0.00  0.00    +0.000 A 
ATOM      5  C11 UNL     1     156.130 157.810 168.461  0.00  0.00    +0.000 A 
ATOM      6  C15 UNL     1     157.235 157.796 167.714  0.00  0.00    +0.000 A 
ENDROOT
BRANCH   1   8
ATOM      7  C1  UNL     1     160.367 157.921 166.418  0.00  0.00    +0.000 C 
ATOM      8  O1  UNL     1     159.466 157.992 167.327  0.00  0.00    +0.000 OA
ENDBRANCH   1   8
BRANCH   6   9
ATOM      9  O2  UNL     1     157.177 157.601 166.319  0.00  0.00    +0.000 OA
ATOM     10  H18 UNL     1     157.470 156.669 165.941  0.00  0.00    +0.000 HD
ENDBRANCH   6   9
BRANCH   3  11
ATOM     11  C5  UNL     1     157.415 159.037 171.650  0.00  0.00    +0.000 C 
BRANCH  11  12
ATOM     12  C6  UNL     1     156.636 160.025 172.260  0.00  0.00    +0.000 A 
ATOM     13  C7  UNL     1     155.558 159.624 173.105  0.00  0.00    +0.000 A 
ATOM     14  N1  UNL     1     154.681 160.500 173.490  0.00  0.00    +0.000 NA
ATOM     15  C8  UNL     1     154.757 161.807 173.112  0.00  0.00    +0.000 A 
ATOM     16  N2  UNL     1     153.649 162.654 173.439  0.00  0.00    +0.000 N 
ATOM     17  N3  UNL     1     155.734 162.217 172.344  0.00  0.00    +0.000 NA
ATOM     18  C9  UNL     1     156.707 161.367 171.887  0.00  0.00    +0.000 A 
ATOM     19  N4  UNL     1     157.736 161.849 171.026  0.00  0.00    +0.000 N 
ATOM     20  H8  UNL     1     153.705 163.602 173.750  0.00  0.00    +0.000 HD
ATOM     21  H9  UNL     1     152.721 162.164 173.289  0.00  0.00    +0.000 HD
ATOM     22  H10 UNL     1     158.631 162.233 171.368  0.00  0.00    +0.000 HD
ATOM     23  H11 UNL     1     157.585 161.824 169.972  0.00  0.00    +0.000 HD
ENDBRANCH  11  12
ENDBRANCH   3  11
BRANCH   5  24
ATOM     24  C12 UNL     1     154.860 157.449 167.770  0.00  0.00    +0.000 C 
BRANCH  24  25
ATOM     25  C13 UNL     1     154.084 158.714 167.454  0.00  0.00    +0.000 C 
ATOM     26  C14 UNL     1     153.975 159.189 166.265  0.00  0.00    +0.000 C 
ENDBRANCH  24  25
ENDBRANCH   5  24
TORSDOF 6
ENDMDL
MODEL 7
REMARK VINA RESULT:      -5.0      4.938      6.767
REMARK  Name = ./3D_structures\o65_MMV1580849_3D.pdb
REMARK  7 active torsions:
REMARK  status: ('A' for Active; 'I' for Inactive)
REMARK    1  A    between atoms: C1_1  and  O1_2
REMARK    2  A    between atoms: O1_2  and  C2_3
REMARK    3  A    between atoms: C4_5  and  C5_6
REMARK    4  A    between atoms: C5_6  and  C6_7
REMARK    5  A    between atoms: C11_16  and  C12_17
REMARK    6  A    between atoms: C12_17  and  C13_18
REMARK    7  A    between atoms: C15_20  and  O2_21
REMARK                            x       y       z     vdW  Elec       q    Type
REMARK                         _______ _______ _______ _____ _____    ______ ____
ROOT
ATOM      1  C2  UNL     1     153.569 159.665 166.578  0.00  0.00    +0.000 A 
ATOM      2  C3  UNL     1     154.474 158.646 166.455  0.00  0.00    +0.000 A 
ATOM      3  C4  UNL     1     154.746 157.753 167.501  0.00  0.00    +0.000 A 
ATOM      4  C10 UNL     1     154.039 157.922 168.708  0.00  0.00    +0.000 A 
ATOM      5  C11 UNL     1     153.138 158.919 168.867  0.00  0.00    +0.000 A 
ATOM      6  C15 UNL     1     152.910 159.760 167.857  0.00  0.00    +0.000 A 
ENDROOT
BRANCH   1   8
ATOM      7  C1  UNL     1     152.821 161.509 164.944  0.00  0.00    +0.000 C 
ATOM      8  O1  UNL     1     153.189 160.590 165.759  0.00  0.00    +0.000 OA
ENDBRANCH   1   8
BRANCH   6   9
ATOM      9  O2  UNL     1     152.052 160.870 168.003  0.00  0.00    +0.000 OA
ATOM     10  H18 UNL     1     152.080 161.613 167.265  0.00  0.00    +0.000 HD
ENDBRANCH   6   9
BRANCH   3  11
ATOM     11  C5  UNL     1     155.927 156.953 167.567  0.00  0.00    +0.000 C 
BRANCH  11  12
ATOM     12  C6  UNL     1     157.237 157.018 167.083  0.00  0.00    +0.000 A 
ATOM     13  C7  UNL     1     158.180 157.843 167.766  0.00  0.00    +0.000 A 
ATOM     14  N1  UNL     1     159.324 158.108 167.213  0.00  0.00    +0.000 NA
ATOM     15  C8  UNL     1     159.660 157.616 165.987  0.00  0.00    +0.000 A 
ATOM     16  N2  UNL     1     160.864 158.108 165.386  0.00  0.00    +0.000 N 
ATOM     17  N3  UNL     1     158.827 156.849 165.332  0.00  0.00    +0.000 NA
ATOM     18  C9  UNL     1     157.597 156.514 165.834  0.00  0.00    +0.000 A 
ATOM     19  N4  UNL     1     156.707 155.701 165.072  0.00  0.00    +0.000 N 
ATOM     20  H8  UNL     1     161.524 157.569 164.866  0.00  0.00    +0.000 HD
ATOM     21  H9  UNL     1     160.979 159.152 165.533  0.00  0.00    +0.000 HD
ATOM     22  H10 UNL     1     156.692 154.671 165.122  0.00  0.00    +0.000 HD
ATOM     23  H11 UNL     1     156.019 156.169 164.406  0.00  0.00    +0.000 HD
ENDBRANCH  11  12
ENDBRANCH   3  11
BRANCH   5  24
ATOM     24  C12 UNL     1     152.319 159.122 170.094  0.00  0.00    +0.000 C 
BRANCH  24  25
ATOM     25  C13 UNL     1     151.257 158.040 170.173  0.00  0.00    +0.000 C 
ATOM     26  C14 UNL     1     150.018 158.256 169.911  0.00  0.00    +0.000 C 
ENDBRANCH  24  25
ENDBRANCH   5  24
TORSDOF 6
ENDMDL
MODEL 8
REMARK VINA RESULT:      -5.0      6.831      9.311
REMARK  Name = ./3D_structures\o65_MMV1580849_3D.pdb
REMARK  7 active torsions:
REMARK  status: ('A' for Active; 'I' for Inactive)
REMARK    1  A    between atoms: C1_1  and  O1_2
REMARK    2  A    between atoms: O1_2  and  C2_3
REMARK    3  A    between atoms: C4_5  and  C5_6
REMARK    4  A    between atoms: C5_6  and  C6_7
REMARK    5  A    between atoms: C11_16  and  C12_17
REMARK    6  A    between atoms: C12_17  and  C13_18
REMARK    7  A    between atoms: C15_20  and  O2_21
REMARK                            x       y       z     vdW  Elec       q    Type
REMARK                         _______ _______ _______ _____ _____    ______ ____
ROOT
ATOM      1  C2  UNL     1     158.329 156.248 164.935  0.00  0.00    +0.000 A 
ATOM      2  C3  UNL     1     159.484 156.872 165.319  0.00  0.00    +0.000 A 
ATOM      3  C4  UNL     1     159.567 157.651 166.481  0.00  0.00    +0.000 A 
ATOM      4  C10 UNL     1     158.409 157.768 167.276  0.00  0.00    +0.000 A 
ATOM      5  C11 UNL     1     157.248 157.166 166.927  0.00  0.00    +0.000 A 
ATOM      6  C15 UNL     1     157.198 156.441 165.808  0.00  0.00    +0.000 A 
ENDROOT
BRANCH   1   8
ATOM      7  C1  UNL     1     157.747 154.788 162.895  0.00  0.00    +0.000 C 
ATOM      8  O1  UNL     1     158.040 155.512 163.912  0.00  0.00    +0.000 OA
ENDBRANCH   1   8
BRANCH   6   9
ATOM      9  O2  UNL     1     155.990 155.873 165.353  0.00  0.00    +0.000 OA
ATOM     10  H18 UNL     1     155.586 156.232 164.456  0.00  0.00    +0.000 HD
ENDBRANCH   6   9
BRANCH   3  11
ATOM     11  C5  UNL     1     160.590 158.619 166.711  0.00  0.00    +0.000 C 
BRANCH  11  12
ATOM     12  C6  UNL     1     161.953 158.616 167.024  0.00  0.00    +0.000 A 
ATOM     13  C7  UNL     1     162.562 157.389 167.423  0.00  0.00    +0.000 A 
ATOM     14  N1  UNL     1     163.751 157.399 167.942  0.00  0.00    +0.000 NA
ATOM     15  C8  UNL     1     164.449 158.556 168.118  0.00  0.00    +0.000 A 
ATOM     16  N2  UNL     1     165.672 158.483 168.860  0.00  0.00    +0.000 N 
ATOM     17  N3  UNL     1     163.929 159.702 167.759  0.00  0.00    +0.000 NA
ATOM     18  C9  UNL     1     162.680 159.792 167.203  0.00  0.00    +0.000 A 
ATOM     19  N4  UNL     1     162.139 161.065 166.854  0.00  0.00    +0.000 N 
ATOM     20  H8  UNL     1     166.514 158.979 168.655  0.00  0.00    +0.000 HD
ATOM     21  H9  UNL     1     165.586 157.841 169.700  0.00  0.00    +0.000 HD
ATOM     22  H10 UNL     1     162.271 161.507 165.931  0.00  0.00    +0.000 HD
ATOM     23  H11 UNL     1     161.571 161.602 167.577  0.00  0.00    +0.000 HD
ENDBRANCH  11  12
ENDBRANCH   3  11
BRANCH   5  24
ATOM     24  C12 UNL     1     156.004 157.203 167.746  0.00  0.00    +0.000 C 
BRANCH  24  25
ATOM     25  C13 UNL     1     156.346 156.897 169.192  0.00  0.00    +0.000 C 
ATOM     26  C14 UNL     1     155.668 157.355 170.183  0.00  0.00    +0.000 C 
ENDBRANCH  24  25
ENDBRANCH   5  24
TORSDOF 6
ENDMDL
MODEL 9
REMARK VINA RESULT:      -5.0      5.739      7.893
REMARK  Name = ./3D_structures\o65_MMV1580849_3D.pdb
REMARK  7 active torsions:
REMARK  status: ('A' for Active; 'I' for Inactive)
REMARK    1  A    between atoms: C1_1  and  O1_2
REMARK    2  A    between atoms: O1_2  and  C2_3
REMARK    3  A    between atoms: C4_5  and  C5_6
REMARK    4  A    between atoms: C5_6  and  C6_7
REMARK    5  A    between atoms: C11_16  and  C12_17
REMARK    6  A    between atoms: C12_17  and  C13_18
REMARK    7  A    between atoms: C15_20  and  O2_21
REMARK                            x       y       z     vdW  Elec       q    Type
REMARK                         _______ _______ _______ _____ _____    ______ ____
ROOT
ATOM      1  C2  UNL     1     158.041 156.295 165.363  0.00  0.00    +0.000 A 
ATOM      2  C3  UNL     1     157.214 156.490 166.434  0.00  0.00    +0.000 A 
ATOM      3  C4  UNL     1     157.569 157.304 167.519  0.00  0.00    +0.000 A 
ATOM      4  C10 UNL     1     158.821 157.948 167.473  0.00  0.00    +0.000 A 
ATOM      5  C11 UNL     1     159.666 157.778 166.430  0.00  0.00    +0.000 A 
ATOM      6  C15 UNL     1     159.305 156.987 165.418  0.00  0.00    +0.000 A 
ENDROOT
BRANCH   1   8
ATOM      7  C1  UNL     1     157.793 154.889 163.219  0.00  0.00    +0.000 C 
ATOM      8  O1  UNL     1     157.916 155.586 164.289  0.00  0.00    +0.000 OA
ENDBRANCH   1   8
BRANCH   6   9
ATOM      9  O2  UNL     1     160.187 156.703 164.355  0.00  0.00    +0.000 OA
ATOM     10  H18 UNL     1     159.818 156.778 163.378  0.00  0.00    +0.000 HD
ENDBRANCH   6   9
BRANCH   3  11
ATOM     11  C5  UNL     1     156.945 157.226 168.801  0.00  0.00    +0.000 C 
BRANCH  11  12
ATOM     12  C6  UNL     1     156.621 158.106 169.838  0.00  0.00    +0.000 A 
ATOM     13  C7  UNL     1     157.566 158.307 170.887  0.00  0.00    +0.000 A 
ATOM     14  N1  UNL     1     157.205 158.924 171.971  0.00  0.00    +0.000 NA
ATOM     15  C8  UNL     1     155.937 159.395 172.141  0.00  0.00    +0.000 A 
ATOM     16  N2  UNL     1     155.587 159.899 173.435  0.00  0.00    +0.000 N 
ATOM     17  N3  UNL     1     155.042 159.237 171.199  0.00  0.00    +0.000 NA
ATOM     18  C9  UNL     1     155.329 158.599 170.021  0.00  0.00    +0.000 A 
ATOM     19  N4  UNL     1     154.315 158.421 169.034  0.00  0.00    +0.000 N 
ATOM     20  H8  UNL     1     155.023 160.701 173.621  0.00  0.00    +0.000 HD
ATOM     21  H9  UNL     1     155.985 159.297 174.213  0.00  0.00    +0.000 HD
ATOM     22  H10 UNL     1     154.121 159.105 168.287  0.00  0.00    +0.000 HD
ATOM     23  H11 UNL     1     153.714 157.542 169.062  0.00  0.00    +0.000 HD
ENDBRANCH  11  12
ENDBRANCH   3  11
BRANCH   5  24
ATOM     24  C12 UNL     1     160.980 158.468 166.292  0.00  0.00    +0.000 C 
BRANCH  24  25
ATOM     25  C13 UNL     1     161.867 158.097 167.466  0.00  0.00    +0.000 C 
ATOM     26  C14 UNL     1     162.752 157.167 167.407  0.00  0.00    +0.000 C 
ENDBRANCH  24  25
ENDBRANCH   5  24
TORSDOF 6
ENDMDL
