MODEL 1
REMARK VINA RESULT:      -7.1      0.000      0.000
REMARK  Name = ./3D_structures\o66_MMV1580839_3D.pdb
REMARK  1 active torsions:
REMARK  status: ('A' for Active; 'I' for Inactive)
REMARK    1  A    between atoms: N3_5  and  C3_6
REMARK                            x       y       z     vdW  Elec       q    Type
REMARK                         _______ _______ _______ _____ _____    ______ ____
ROOT
ATOM      1  N1  UNL     1     144.740 168.549 165.582  0.00  0.00    +0.000 N 
ATOM      2  C1  UNL     1     145.500 167.366 165.750  0.00  0.00    +0.000 C 
ATOM      3  N2  UNL     1     146.850 167.325 165.718  0.00  0.00    +0.000 NA
ATOM      4  C2  UNL     1     147.542 166.185 165.881  0.00  0.00    +0.000 C 
ATOM      5  N3  UNL     1     148.951 166.232 165.833  0.00  0.00    +0.000 N 
ATOM      6  N4  UNL     1     146.834 165.071 166.080  0.00  0.00    +0.000 NA
ATOM      7  C12 UNL     1     145.484 165.030 166.126  0.00  0.00    +0.000 C 
ATOM      8  N5  UNL     1     144.833 166.217 165.953  0.00  0.00    +0.000 NA
ATOM      9  N6  UNL     1     144.756 163.846 166.336  0.00  0.00    +0.000 N 
ATOM     10  C13 UNL     1     143.325 163.874 166.379  0.00  0.00    +0.000 C 
ATOM     11  C14 UNL     1     142.740 162.743 167.162  0.00  0.00    +0.000 C 
ATOM     12  C15 UNL     1     143.324 161.408 166.845  0.00  0.00    +0.000 C 
ATOM     13  C16 UNL     1     144.500 161.529 165.935  0.00  0.00    +0.000 C 
ATOM     14  C17 UNL     1     145.439 162.599 166.509  0.00  0.00    +0.000 C 
ATOM     15  H1  UNL     1     144.163 168.989 166.323  0.00  0.00    +0.000 HD
ATOM     16  H2  UNL     1     144.762 169.010 164.646  0.00  0.00    +0.000 HD
ATOM     17  H3  UNL     1     149.414 167.154 165.671  0.00  0.00    +0.000 HD
ENDROOT
BRANCH   5  18
ATOM     18  C3  UNL     1     149.803 165.090 165.993  0.00  0.00    +0.000 C 
ATOM     19  C4  UNL     1     150.516 165.089 167.345  0.00  0.00    +0.000 C 
ATOM     20  C5  UNL     1     151.579 164.094 167.060  0.00  0.00    +0.000 A 
ATOM     21  C6  UNL     1     152.270 163.232 167.864  0.00  0.00    +0.000 A 
ATOM     22  C7  UNL     1     153.242 162.367 167.375  0.00  0.00    +0.000 A 
ATOM     23  C8  UNL     1     153.530 162.369 166.031  0.00  0.00    +0.000 A 
ATOM     24  F1  UNL     1     154.483 161.533 165.500  0.00  0.00    +0.000 F 
ATOM     25  C9  UNL     1     152.824 163.247 165.217  0.00  0.00    +0.000 A 
ATOM     26  C10 UNL     1     151.866 164.097 165.711  0.00  0.00    +0.000 A 
ATOM     27  C11 UNL     1     150.997 165.105 165.066  0.00  0.00    +0.000 C 
ENDBRANCH   5  18
TORSDOF 1
ENDMDL
MODEL 2
REMARK VINA RESULT:      -6.9     10.312     13.686
REMARK  Name = ./3D_structures\o66_MMV1580839_3D.pdb
REMARK  1 active torsions:
REMARK  status: ('A' for Active; 'I' for Inactive)
REMARK    1  A    between atoms: N3_5  and  C3_6
REMARK                            x       y       z     vdW  Elec       q    Type
REMARK                         _______ _______ _______ _____ _____    ______ ____
ROOT
ATOM      1  N1  UNL     1     157.122 154.872 163.707  0.00  0.00    +0.000 N 
ATOM      2  C1  UNL     1     157.324 155.729 164.817  0.00  0.00    +0.000 C 
ATOM      3  N2  UNL     1     156.338 156.134 165.647  0.00  0.00    +0.000 NA
ATOM      4  C2  UNL     1     156.563 156.947 166.692  0.00  0.00    +0.000 C 
ATOM      5  N3  UNL     1     155.475 157.322 167.509  0.00  0.00    +0.000 N 
ATOM      6  N4  UNL     1     157.821 157.350 166.885  0.00  0.00    +0.000 NA
ATOM      7  C12 UNL     1     158.860 156.989 166.102  0.00  0.00    +0.000 C 
ATOM      8  N5  UNL     1     158.574 156.162 165.054  0.00  0.00    +0.000 NA
ATOM      9  N6  UNL     1     160.179 157.424 166.321  0.00  0.00    +0.000 N 
ATOM     10  C13 UNL     1     161.236 156.998 165.454  0.00  0.00    +0.000 C 
ATOM     11  C14 UNL     1     162.579 157.030 166.108  0.00  0.00    +0.000 C 
ATOM     12  C15 UNL     1     162.866 158.284 166.865  0.00  0.00    +0.000 C 
ATOM     13  C16 UNL     1     161.660 159.158 166.947  0.00  0.00    +0.000 C 
ATOM     14  C17 UNL     1     160.478 158.298 167.416  0.00  0.00    +0.000 C 
ATOM     15  H1  UNL     1     157.494 153.908 163.632  0.00  0.00    +0.000 HD
ATOM     16  H2  UNL     1     156.559 155.240 162.909  0.00  0.00    +0.000 HD
ATOM     17  H3  UNL     1     154.526 156.955 167.275  0.00  0.00    +0.000 HD
ENDROOT
BRANCH   5  18
ATOM     18  C3  UNL     1     155.582 158.182 168.651  0.00  0.00    +0.000 C 
ATOM     19  C4  UNL     1     156.171 157.457 169.862  0.00  0.00    +0.000 C 
ATOM     20  C5  UNL     1     155.777 158.408 170.931  0.00  0.00    +0.000 A 
ATOM     21  C6  UNL     1     156.328 158.705 172.146  0.00  0.00    +0.000 A 
ATOM     22  C7  UNL     1     155.784 159.653 173.004  0.00  0.00    +0.000 A 
ATOM     23  C8  UNL     1     154.646 160.326 172.629  0.00  0.00    +0.000 A 
ATOM     24  F1  UNL     1     154.070 161.272 173.443  0.00  0.00    +0.000 F 
ATOM     25  C9  UNL     1     154.089 160.022 171.392  0.00  0.00    +0.000 A 
ATOM     26  C10 UNL     1     154.636 159.084 170.552  0.00  0.00    +0.000 A 
ATOM     27  C11 UNL     1     154.240 158.589 169.216  0.00  0.00    +0.000 C 
ENDBRANCH   5  18
TORSDOF 1
ENDMDL
MODEL 3
REMARK VINA RESULT:      -6.7     11.231     13.988
REMARK  Name = ./3D_structures\o66_MMV1580839_3D.pdb
REMARK  1 active torsions:
REMARK  status: ('A' for Active; 'I' for Inactive)
REMARK    1  A    between atoms: N3_5  and  C3_6
REMARK                            x       y       z     vdW  Elec       q    Type
REMARK                         _______ _______ _______ _____ _____    ______ ____
ROOT
ATOM      1  N1  UNL     1     156.348 156.127 165.063  0.00  0.00    +0.000 N 
ATOM      2  C1  UNL     1     157.233 156.737 165.987  0.00  0.00    +0.000 C 
ATOM      3  N2  UNL     1     158.559 156.886 165.775  0.00  0.00    +0.000 NA
ATOM      4  C2  UNL     1     159.372 157.469 166.671  0.00  0.00    +0.000 C 
ATOM      5  N3  UNL     1     160.746 157.583 166.371  0.00  0.00    +0.000 N 
ATOM      6  N4  UNL     1     158.811 157.905 167.802  0.00  0.00    +0.000 NA
ATOM      7  C12 UNL     1     157.495 157.794 168.086  0.00  0.00    +0.000 C 
ATOM      8  N5  UNL     1     156.717 157.193 167.140  0.00  0.00    +0.000 NA
ATOM      9  N6  UNL     1     156.924 158.260 169.283  0.00  0.00    +0.000 N 
ATOM     10  C13 UNL     1     155.519 158.116 169.520  0.00  0.00    +0.000 C 
ATOM     11  C14 UNL     1     154.979 159.124 170.481  0.00  0.00    +0.000 C 
ATOM     12  C15 UNL     1     155.800 159.299 171.714  0.00  0.00    +0.000 C 
ATOM     13  C16 UNL     1     157.085 158.547 171.625  0.00  0.00    +0.000 C 
ATOM     14  C17 UNL     1     157.742 158.884 170.280  0.00  0.00    +0.000 C 
ATOM     15  H1  UNL     1     155.593 156.624 164.555  0.00  0.00    +0.000 HD
ATOM     16  H2  UNL     1     156.465 155.106 164.883  0.00  0.00    +0.000 HD
ATOM     17  H3  UNL     1     161.089 157.210 165.458  0.00  0.00    +0.000 HD
ENDROOT
BRANCH   5  18
ATOM     18  C3  UNL     1     161.715 158.184 167.240  0.00  0.00    +0.000 C 
ATOM     19  C4  UNL     1     162.249 159.503 166.680  0.00  0.00    +0.000 C 
ATOM     20  C5  UNL     1     163.462 159.651 167.522  0.00  0.00    +0.000 A 
ATOM     21  C6  UNL     1     164.157 160.748 167.947  0.00  0.00    +0.000 A 
ATOM     22  C7  UNL     1     165.288 160.655 168.749  0.00  0.00    +0.000 A 
ATOM     23  C8  UNL     1     165.737 159.415 169.138  0.00  0.00    +0.000 A 
ATOM     24  F1  UNL     1     166.850 159.271 169.931  0.00  0.00    +0.000 F 
ATOM     25  C9  UNL     1     165.026 158.302 168.705  0.00  0.00    +0.000 A 
ATOM     26  C10 UNL     1     163.910 158.406 167.912  0.00  0.00    +0.000 A 
ATOM     27  C11 UNL     1     163.002 157.396 167.329  0.00  0.00    +0.000 C 
ENDBRANCH   5  18
TORSDOF 1
ENDMDL
MODEL 4
REMARK VINA RESULT:      -6.6     11.370     14.514
REMARK  Name = ./3D_structures\o66_MMV1580839_3D.pdb
REMARK  1 active torsions:
REMARK  status: ('A' for Active; 'I' for Inactive)
REMARK    1  A    between atoms: N3_5  and  C3_6
REMARK                            x       y       z     vdW  Elec       q    Type
REMARK                         _______ _______ _______ _____ _____    ______ ____
ROOT
ATOM      1  N1  UNL     1     159.482 155.196 159.985  0.00  0.00    +0.000 N 
ATOM      2  C1  UNL     1     158.844 154.948 161.226  0.00  0.00    +0.000 C 
ATOM      3  N2  UNL     1     158.582 155.902 162.145  0.00  0.00    +0.000 NA
ATOM      4  C2  UNL     1     157.975 155.634 163.312  0.00  0.00    +0.000 C 
ATOM      5  N3  UNL     1     157.741 156.691 164.217  0.00  0.00    +0.000 N 
ATOM      6  N4  UNL     1     157.633 154.363 163.537  0.00  0.00    +0.000 NA
ATOM      7  C12 UNL     1     157.859 153.353 162.669  0.00  0.00    +0.000 C 
ATOM      8  N5  UNL     1     158.479 153.684 161.499  0.00  0.00    +0.000 NA
ATOM      9  N6  UNL     1     157.491 152.021 162.925  0.00  0.00    +0.000 N 
ATOM     10  C13 UNL     1     157.755 150.997 161.957  0.00  0.00    +0.000 C 
ATOM     11  C14 UNL     1     156.834 149.827 162.075  0.00  0.00    +0.000 C 
ATOM     12  C15 UNL     1     156.647 149.329 163.469  0.00  0.00    +0.000 C 
ATOM     13  C16 UNL     1     157.291 150.235 164.463  0.00  0.00    +0.000 C 
ATOM     14  C17 UNL     1     156.847 151.672 164.156  0.00  0.00    +0.000 C 
ATOM     15  H1  UNL     1     159.025 155.104 159.059  0.00  0.00    +0.000 HD
ATOM     16  H2  UNL     1     160.482 155.493 160.007  0.00  0.00    +0.000 HD
ATOM     17  H3  UNL     1     158.047 157.652 163.949  0.00  0.00    +0.000 HD
ENDROOT
BRANCH   5  18
ATOM     18  C3  UNL     1     157.103 156.536 165.491  0.00  0.00    +0.000 C 
ATOM     19  C4  UNL     1     155.873 157.434 165.631  0.00  0.00    +0.000 C 
ATOM     20  C5  UNL     1     155.699 157.381 167.104  0.00  0.00    +0.000 A 
ATOM     21  C6  UNL     1     154.599 157.510 167.904  0.00  0.00    +0.000 A 
ATOM     22  C7  UNL     1     154.666 157.422 169.290  0.00  0.00    +0.000 A 
ATOM     23  C8  UNL     1     155.880 157.195 169.893  0.00  0.00    +0.000 A 
ATOM     24  F1  UNL     1     155.998 157.100 171.258  0.00  0.00    +0.000 F 
ATOM     25  C9  UNL     1     156.997 157.064 169.074  0.00  0.00    +0.000 A 
ATOM     26  C10 UNL     1     156.919 157.153 167.706  0.00  0.00    +0.000 A 
ATOM     27  C11 UNL     1     157.938 157.054 166.640  0.00  0.00    +0.000 C 
ENDBRANCH   5  18
TORSDOF 1
ENDMDL
MODEL 5
REMARK VINA RESULT:      -6.3      4.414      7.384
REMARK  Name = ./3D_structures\o66_MMV1580839_3D.pdb
REMARK  1 active torsions:
REMARK  status: ('A' for Active; 'I' for Inactive)
REMARK    1  A    between atoms: N3_5  and  C3_6
REMARK                            x       y       z     vdW  Elec       q    Type
REMARK                         _______ _______ _______ _____ _____    ______ ____
ROOT
ATOM      1  N1  UNL     1     147.509 163.245 169.220  0.00  0.00    +0.000 N 
ATOM      2  C1  UNL     1     148.846 162.874 168.930  0.00  0.00    +0.000 C 
ATOM      3  N2  UNL     1     149.486 161.839 169.517  0.00  0.00    +0.000 NA
ATOM      4  C2  UNL     1     150.755 161.514 169.220  0.00  0.00    +0.000 C 
ATOM      5  N3  UNL     1     151.349 160.418 169.881  0.00  0.00    +0.000 N 
ATOM      6  N4  UNL     1     151.373 162.264 168.305  0.00  0.00    +0.000 NA
ATOM      7  C12 UNL     1     150.802 163.312 167.673  0.00  0.00    +0.000 C 
ATOM      8  N5  UNL     1     149.512 163.598 168.015  0.00  0.00    +0.000 NA
ATOM      9  N6  UNL     1     151.470 164.090 166.712  0.00  0.00    +0.000 N 
ATOM     10  C13 UNL     1     150.802 165.186 166.075  0.00  0.00    +0.000 C 
ATOM     11  C14 UNL     1     151.371 165.519 164.734  0.00  0.00    +0.000 C 
ATOM     12  C15 UNL     1     152.861 165.597 164.699  0.00  0.00    +0.000 C 
ATOM     13  C16 UNL     1     153.460 165.142 165.987  0.00  0.00    +0.000 C 
ATOM     14  C17 UNL     1     152.826 163.794 166.359  0.00  0.00    +0.000 C 
ATOM     15  H1  UNL     1     146.719 163.169 168.552  0.00  0.00    +0.000 HD
ATOM     16  H2  UNL     1     147.307 163.621 170.172  0.00  0.00    +0.000 HD
ATOM     17  H3  UNL     1     150.782 159.893 170.583  0.00  0.00    +0.000 HD
ENDROOT
BRANCH   5  18
ATOM     18  C3  UNL     1     152.691 159.969 169.654  0.00  0.00    +0.000 C 
ATOM     19  C4  UNL     1     152.747 158.485 169.289  0.00  0.00    +0.000 C 
ATOM     20  C5  UNL     1     154.189 158.229 169.528  0.00  0.00    +0.000 A 
ATOM     21  C6  UNL     1     155.064 157.329 168.987  0.00  0.00    +0.000 A 
ATOM     22  C7  UNL     1     156.400 157.265 169.364  0.00  0.00    +0.000 A 
ATOM     23  C8  UNL     1     156.874 158.135 170.317  0.00  0.00    +0.000 A 
ATOM     24  F1  UNL     1     158.187 158.111 170.722  0.00  0.00    +0.000 F 
ATOM     25  C9  UNL     1     155.980 159.049 170.863  0.00  0.00    +0.000 A 
ATOM     26  C10 UNL     1     154.662 159.104 170.483  0.00  0.00    +0.000 A 
ATOM     27  C11 UNL     1     153.536 159.962 170.908  0.00  0.00    +0.000 C 
ENDBRANCH   5  18
TORSDOF 1
ENDMDL
MODEL 6
REMARK VINA RESULT:      -6.3     11.980     14.415
REMARK  Name = ./3D_structures\o66_MMV1580839_3D.pdb
REMARK  1 active torsions:
REMARK  status: ('A' for Active; 'I' for Inactive)
REMARK    1  A    between atoms: N3_5  and  C3_6
REMARK                            x       y       z     vdW  Elec       q    Type
REMARK                         _______ _______ _______ _____ _____    ______ ____
ROOT
ATOM      1  N1  UNL     1     161.462 159.713 165.959  0.00  0.00    +0.000 N 
ATOM      2  C1  UNL     1     160.480 158.692 166.000  0.00  0.00    +0.000 C 
ATOM      3  N2  UNL     1     160.335 157.745 165.048  0.00  0.00    +0.000 NA
ATOM      4  C2  UNL     1     159.393 156.790 165.116  0.00  0.00    +0.000 C 
ATOM      5  N3  UNL     1     159.311 155.839 164.077  0.00  0.00    +0.000 N 
ATOM      6  N4  UNL     1     158.588 156.811 166.181  0.00  0.00    +0.000 NA
ATOM      7  C12 UNL     1     158.670 157.722 167.175  0.00  0.00    +0.000 C 
ATOM      8  N5  UNL     1     159.645 158.669 167.052  0.00  0.00    +0.000 NA
ATOM      9  N6  UNL     1     157.812 157.727 168.288  0.00  0.00    +0.000 N 
ATOM     10  C13 UNL     1     157.957 158.720 169.310  0.00  0.00    +0.000 C 
ATOM     11  C14 UNL     1     157.427 158.280 170.636  0.00  0.00    +0.000 C 
ATOM     12  C15 UNL     1     156.080 157.641 170.579  0.00  0.00    +0.000 C 
ATOM     13  C16 UNL     1     155.639 157.424 169.171  0.00  0.00    +0.000 C 
ATOM     14  C17 UNL     1     156.784 156.738 168.412  0.00  0.00    +0.000 C 
ATOM     15  H1  UNL     1     162.257 159.792 166.620  0.00  0.00    +0.000 HD
ATOM     16  H2  UNL     1     161.378 160.435 165.210  0.00  0.00    +0.000 HD
ATOM     17  H3  UNL     1     159.987 155.908 163.285  0.00  0.00    +0.000 HD
ENDROOT
BRANCH   5  18
ATOM     18  C3  UNL     1     158.354 154.773 164.033  0.00  0.00    +0.000 C 
ATOM     19  C4  UNL     1     158.938 153.455 164.544  0.00  0.00    +0.000 C 
ATOM     20  C5  UNL     1     157.925 152.515 164.004  0.00  0.00    +0.000 A 
ATOM     21  C6  UNL     1     157.495 151.287 164.424  0.00  0.00    +0.000 A 
ATOM     22  C7  UNL     1     156.513 150.567 163.754  0.00  0.00    +0.000 A 
ATOM     23  C8  UNL     1     155.944 151.099 162.621  0.00  0.00    +0.000 A 
ATOM     24  F1  UNL     1     154.970 150.426 161.924  0.00  0.00    +0.000 F 
ATOM     25  C9  UNL     1     156.384 152.348 162.198  0.00  0.00    +0.000 A 
ATOM     26  C10 UNL     1     157.354 153.050 162.869  0.00  0.00    +0.000 A 
ATOM     27  C11 UNL     1     157.983 154.366 162.625  0.00  0.00    +0.000 C 
ENDBRANCH   5  18
TORSDOF 1
ENDMDL
MODEL 7
REMARK VINA RESULT:      -6.2      3.880      6.141
REMARK  Name = ./3D_structures\o66_MMV1580839_3D.pdb
REMARK  1 active torsions:
REMARK  status: ('A' for Active; 'I' for Inactive)
REMARK    1  A    between atoms: N3_5  and  C3_6
REMARK                            x       y       z     vdW  Elec       q    Type
REMARK                         _______ _______ _______ _____ _____    ______ ____
ROOT
ATOM      1  N1  UNL     1     148.384 166.584 166.048  0.00  0.00    +0.000 N 
ATOM      2  C1  UNL     1     149.317 165.716 166.668  0.00  0.00    +0.000 C 
ATOM      3  N2  UNL     1     149.950 164.708 166.029  0.00  0.00    +0.000 NA
ATOM      4  C2  UNL     1     150.830 163.903 166.646  0.00  0.00    +0.000 C 
ATOM      5  N3  UNL     1     151.445 162.872 165.904  0.00  0.00    +0.000 N 
ATOM      6  N4  UNL     1     151.063 164.139 167.939  0.00  0.00    +0.000 NA
ATOM      7  C12 UNL     1     150.473 165.127 168.646  0.00  0.00    +0.000 C 
ATOM      8  N5  UNL     1     149.586 165.914 167.969  0.00  0.00    +0.000 NA
ATOM      9  N6  UNL     1     150.731 165.360 170.008  0.00  0.00    +0.000 N 
ATOM     10  C13 UNL     1     150.074 166.430 170.698  0.00  0.00    +0.000 C 
ATOM     11  C14 UNL     1     150.837 166.919 171.885  0.00  0.00    +0.000 C 
ATOM     12  C15 UNL     1     151.356 165.837 172.772  0.00  0.00    +0.000 C 
ATOM     13  C16 UNL     1     151.145 164.490 172.168  0.00  0.00    +0.000 C 
ATOM     14  C17 UNL     1     151.655 164.530 170.721  0.00  0.00    +0.000 C 
ATOM     15  H1  UNL     1     148.538 167.596 165.886  0.00  0.00    +0.000 HD
ATOM     16  H2  UNL     1     147.477 166.173 165.733  0.00  0.00    +0.000 HD
ATOM     17  H3  UNL     1     151.197 162.767 164.896  0.00  0.00    +0.000 HD
ENDROOT
BRANCH   5  18
ATOM     18  C3  UNL     1     152.401 161.949 166.444  0.00  0.00    +0.000 C 
ATOM     19  C4  UNL     1     152.902 160.959 165.391  0.00  0.00    +0.000 C 
ATOM     20  C5  UNL     1     153.497 159.935 166.284  0.00  0.00    +0.000 A 
ATOM     21  C6  UNL     1     154.516 159.042 166.107  0.00  0.00    +0.000 A 
ATOM     22  C7  UNL     1     154.918 158.156 167.100  0.00  0.00    +0.000 A 
ATOM     23  C8  UNL     1     154.273 158.168 168.314  0.00  0.00    +0.000 A 
ATOM     24  F1  UNL     1     154.634 157.312 169.326  0.00  0.00    +0.000 F 
ATOM     25  C9  UNL     1     153.237 159.078 168.490  0.00  0.00    +0.000 A 
ATOM     26  C10 UNL     1     152.849 159.949 167.502  0.00  0.00    +0.000 A 
ATOM     27  C11 UNL     1     151.798 160.987 167.442  0.00  0.00    +0.000 C 
ENDBRANCH   5  18
TORSDOF 1
ENDMDL
MODEL 8
REMARK VINA RESULT:      -6.1      7.571     10.687
REMARK  Name = ./3D_structures\o66_MMV1580839_3D.pdb
REMARK  1 active torsions:
REMARK  status: ('A' for Active; 'I' for Inactive)
REMARK    1  A    between atoms: N3_5  and  C3_6
REMARK                            x       y       z     vdW  Elec       q    Type
REMARK                         _______ _______ _______ _____ _____    ______ ____
ROOT
ATOM      1  N1  UNL     1     155.868 156.235 170.678  0.00  0.00    +0.000 N 
ATOM      2  C1  UNL     1     155.661 157.533 170.147  0.00  0.00    +0.000 C 
ATOM      3  N2  UNL     1     155.093 157.775 168.946  0.00  0.00    +0.000 NA
ATOM      4  C2  UNL     1     154.911 159.018 168.471  0.00  0.00    +0.000 C 
ATOM      5  N3  UNL     1     154.311 159.182 167.205  0.00  0.00    +0.000 N 
ATOM      6  N4  UNL     1     155.319 160.027 169.245  0.00  0.00    +0.000 NA
ATOM      7  C12 UNL     1     155.893 159.867 170.457  0.00  0.00    +0.000 C 
ATOM      8  N5  UNL     1     156.054 158.582 170.889  0.00  0.00    +0.000 NA
ATOM      9  N6  UNL     1     156.316 160.942 171.257  0.00  0.00    +0.000 N 
ATOM     10  C13 UNL     1     156.913 160.702 172.537  0.00  0.00    +0.000 C 
ATOM     11  C14 UNL     1     156.766 161.853 173.478  0.00  0.00    +0.000 C 
ATOM     12  C15 UNL     1     157.092 163.181 172.882  0.00  0.00    +0.000 C 
ATOM     13  C16 UNL     1     157.322 163.077 171.412  0.00  0.00    +0.000 C 
ATOM     14  C17 UNL     1     156.154 162.290 170.801  0.00  0.00    +0.000 C 
ATOM     15  H1  UNL     1     155.383 155.856 171.512  0.00  0.00    +0.000 HD
ATOM     16  H2  UNL     1     156.557 155.619 170.194  0.00  0.00    +0.000 HD
ATOM     17  H3  UNL     1     154.026 158.329 166.674  0.00  0.00    +0.000 HD
ENDROOT
BRANCH   5  18
ATOM     18  C3  UNL     1     154.061 160.452 166.588  0.00  0.00    +0.000 C 
ATOM     19  C4  UNL     1     152.828 160.419 165.684  0.00  0.00    +0.000 C 
ATOM     20  C5  UNL     1     153.065 161.659 164.904  0.00  0.00    +0.000 A 
ATOM     21  C6  UNL     1     152.214 162.530 164.283  0.00  0.00    +0.000 A 
ATOM     22  C7  UNL     1     152.662 163.653 163.597  0.00  0.00    +0.000 A 
ATOM     23  C8  UNL     1     154.010 163.910 163.532  0.00  0.00    +0.000 A 
ATOM     24  F1  UNL     1     154.501 165.006 162.866  0.00  0.00    +0.000 F 
ATOM     25  C9  UNL     1     154.872 163.021 164.166  0.00  0.00    +0.000 A 
ATOM     26  C10 UNL     1     154.418 161.915 164.841  0.00  0.00    +0.000 A 
ATOM     27  C11 UNL     1     155.116 160.840 165.578  0.00  0.00    +0.000 C 
ENDBRANCH   5  18
TORSDOF 1
ENDMDL
MODEL 9
REMARK VINA RESULT:      -6.0      3.707      7.357
REMARK  Name = ./3D_structures\o66_MMV1580839_3D.pdb
REMARK  1 active torsions:
REMARK  status: ('A' for Active; 'I' for Inactive)
REMARK    1  A    between atoms: N3_5  and  C3_6
REMARK                            x       y       z     vdW  Elec       q    Type
REMARK                         _______ _______ _______ _____ _____    ______ ____
ROOT
ATOM      1  N1  UNL     1     151.017 166.814 171.976  0.00  0.00    +0.000 N 
ATOM      2  C1  UNL     1     150.218 166.322 170.914  0.00  0.00    +0.000 C 
ATOM      3  N2  UNL     1     148.947 165.888 171.064  0.00  0.00    +0.000 NA
ATOM      4  C2  UNL     1     148.216 165.427 170.037  0.00  0.00    +0.000 C 
ATOM      5  N3  UNL     1     146.896 164.992 170.282  0.00  0.00    +0.000 N 
ATOM      6  N4  UNL     1     148.800 165.413 168.837  0.00  0.00    +0.000 NA
ATOM      7  C12 UNL     1     150.064 165.831 168.605  0.00  0.00    +0.000 C 
ATOM      8  N5  UNL     1     150.761 166.288 169.686  0.00  0.00    +0.000 NA
ATOM      9  N6  UNL     1     150.662 165.808 167.334  0.00  0.00    +0.000 N 
ATOM     10  C13 UNL     1     152.006 166.272 167.156  0.00  0.00    +0.000 C 
ATOM     11  C14 UNL     1     152.288 166.735 165.764  0.00  0.00    +0.000 C 
ATOM     12  C15 UNL     1     151.806 165.809 164.698  0.00  0.00    +0.000 C 
ATOM     13  C16 UNL     1     150.984 164.703 165.267  0.00  0.00    +0.000 C 
ATOM     14  C17 UNL     1     149.934 165.321 166.201  0.00  0.00    +0.000 C 
ATOM     15  H1  UNL     1     151.337 167.796 172.066  0.00  0.00    +0.000 HD
ATOM     16  H2  UNL     1     151.303 166.139 172.719  0.00  0.00    +0.000 HD
ATOM     17  H3  UNL     1     146.528 165.042 171.258  0.00  0.00    +0.000 HD
ENDROOT
BRANCH   5  18
ATOM     18  C3  UNL     1     146.014 164.481 169.274  0.00  0.00    +0.000 C 
ATOM     19  C4  UNL     1     146.572 163.224 168.605  0.00  0.00    +0.000 C 
ATOM     20  C5  UNL     1     145.711 163.188 167.398  0.00  0.00    +0.000 A 
ATOM     21  C6  UNL     1     145.281 162.159 166.607  0.00  0.00    +0.000 A 
ATOM     22  C7  UNL     1     144.459 162.356 165.503  0.00  0.00    +0.000 A 
ATOM     23  C8  UNL     1     144.055 163.630 165.182  0.00  0.00    +0.000 A 
ATOM     24  F1  UNL     1     143.243 163.876 164.102  0.00  0.00    +0.000 F 
ATOM     25  C9  UNL     1     144.495 164.673 165.990  0.00  0.00    +0.000 A 
ATOM     26  C10 UNL     1     145.306 164.467 167.078  0.00  0.00    +0.000 A 
ATOM     27  C11 UNL     1     145.899 165.389 168.071  0.00  0.00    +0.000 C 
ENDBRANCH   5  18
TORSDOF 1
ENDMDL
