MODEL 1
REMARK VINA RESULT:      -6.3      0.000      0.000
REMARK  Name = ./3D_structures\o67_MMV1579779_3D.pdb
REMARK  5 active torsions:
REMARK  status: ('A' for Active; 'I' for Inactive)
REMARK    1  A    between atoms: C1_1  and  C2_2
REMARK    2  A    between atoms: N1_4  and  C3_5
REMARK    3  A    between atoms: C5_7  and  N2_8
REMARK    4  A    between atoms: N2_8  and  S1_9
REMARK    5  A    between atoms: S1_9  and  C6_12
REMARK                            x       y       z     vdW  Elec       q    Type
REMARK                         _______ _______ _______ _____ _____    ______ ____
ROOT
ATOM      1  C3  UNL     1     149.549 165.432 166.688  0.00  0.00    +0.000 A 
ATOM      2  C4  UNL     1     149.660 164.299 167.431  0.00  0.00    +0.000 A 
ATOM      3  C5  UNL     1     148.524 163.539 167.806  0.00  0.00    +0.000 A 
ATOM      4  C12 UNL     1     147.273 163.942 167.420  0.00  0.00    +0.000 A 
ATOM      5  C13 UNL     1     147.133 165.084 166.669  0.00  0.00    +0.000 A 
ATOM      6  C14 UNL     1     146.002 165.712 166.149  0.00  0.00    +0.000 A 
ATOM      7 CL2  UNL     1     144.339 165.218 166.300  0.00  0.00    +0.000 Cl
ATOM      8  N3  UNL     1     146.478 166.791 165.501  0.00  0.00    +0.000 NA
ATOM      9  N4  UNL     1     147.815 166.838 165.606  0.00  0.00    +0.000 N 
ATOM     10  C15 UNL     1     148.240 165.788 166.326  0.00  0.00    +0.000 A 
ATOM     11  H12 UNL     1     148.428 167.589 165.183  0.00  0.00    +0.000 HD
ENDROOT
BRANCH   1  15
ATOM     12  C1  UNL     1     152.618 166.962 164.881  0.00  0.00    +0.000 C 
ATOM     13  C2  UNL     1     151.490 166.017 165.203  0.00  0.00    +0.000 C 
ATOM     14  O1  UNL     1     151.332 165.016 164.469  0.00  0.00    +0.000 OA
ATOM     15  N1  UNL     1     150.630 166.230 166.283  0.00  0.00    +0.000 N 
ATOM     16  H4  UNL     1     150.850 167.117 166.851  0.00  0.00    +0.000 HD
ENDBRANCH   1  15
BRANCH   3  17
ATOM     17  N2  UNL     1     148.745 162.357 168.575  0.00  0.00    +0.000 N 
ATOM     18  H6  UNL     1     148.533 162.456 169.602  0.00  0.00    +0.000 HD
BRANCH  17  19
ATOM     19  S1  UNL     1     149.298 160.865 167.999  0.00  0.00    +0.000 S 
ATOM     20  O2  UNL     1     149.251 159.894 169.169  0.00  0.00    +0.000 OA
ATOM     21  O3  UNL     1     148.291 160.331 166.983  0.00  0.00    +0.000 OA
BRANCH  19  22
ATOM     22  C6  UNL     1     150.886 160.906 167.293  0.00  0.00    +0.000 A 
ATOM     23  C7  UNL     1     151.001 161.207 165.931  0.00  0.00    +0.000 A 
ATOM     24  C8  UNL     1     152.231 161.236 165.299  0.00  0.00    +0.000 A 
ATOM     25  C9  UNL     1     153.383 160.972 165.987  0.00  0.00    +0.000 A 
ATOM     26 CL1  UNL     1     154.965 160.986 165.272  0.00  0.00    +0.000 Cl
ATOM     27  C10 UNL     1     153.258 160.675 167.339  0.00  0.00    +0.000 A 
ATOM     28  C11 UNL     1     152.043 160.643 167.976  0.00  0.00    +0.000 A 
ENDBRANCH  19  22
ENDBRANCH  17  19
ENDBRANCH   3  17
TORSDOF 4
ENDMDL
MODEL 2
REMARK VINA RESULT:      -6.2      1.574      1.941
REMARK  Name = ./3D_structures\o67_MMV1579779_3D.pdb
REMARK  5 active torsions:
REMARK  status: ('A' for Active; 'I' for Inactive)
REMARK    1  A    between atoms: C1_1  and  C2_2
REMARK    2  A    between atoms: N1_4  and  C3_5
REMARK    3  A    between atoms: C5_7  and  N2_8
REMARK    4  A    between atoms: N2_8  and  S1_9
REMARK    5  A    between atoms: S1_9  and  C6_12
REMARK                            x       y       z     vdW  Elec       q    Type
REMARK                         _______ _______ _______ _____ _____    ______ ____
ROOT
ATOM      1  C3  UNL     1     149.531 165.376 166.796  0.00  0.00    +0.000 A 
ATOM      2  C4  UNL     1     149.602 164.265 167.577  0.00  0.00    +0.000 A 
ATOM      3  C5  UNL     1     148.443 163.538 167.945  0.00  0.00    +0.000 A 
ATOM      4  C12 UNL     1     147.210 163.949 167.514  0.00  0.00    +0.000 A 
ATOM      5  C13 UNL     1     147.110 165.069 166.723  0.00  0.00    +0.000 A 
ATOM      6  C14 UNL     1     146.005 165.699 166.154  0.00  0.00    +0.000 A 
ATOM      7 CL2  UNL     1     144.330 165.239 166.277  0.00  0.00    +0.000 Cl
ATOM      8  N3  UNL     1     146.517 166.749 165.485  0.00  0.00    +0.000 NA
ATOM      9  N4  UNL     1     147.851 166.776 165.624  0.00  0.00    +0.000 N 
ATOM     10  C15 UNL     1     148.239 165.743 166.388  0.00  0.00    +0.000 A 
ATOM     11  H12 UNL     1     148.489 167.502 165.195  0.00  0.00    +0.000 HD
ENDROOT
BRANCH   1  15
ATOM     12  C1  UNL     1     152.619 166.845 164.971  0.00  0.00    +0.000 C 
ATOM     13  C2  UNL     1     151.458 165.938 165.284  0.00  0.00    +0.000 C 
ATOM     14  O1  UNL     1     151.235 164.977 164.513  0.00  0.00    +0.000 OA
ATOM     15  N1  UNL     1     150.637 166.141 166.395  0.00  0.00    +0.000 N 
ATOM     16  H4  UNL     1     150.911 166.993 166.994  0.00  0.00    +0.000 HD
ENDBRANCH   1  15
BRANCH   3  17
ATOM     17  N2  UNL     1     148.623 162.377 168.756  0.00  0.00    +0.000 N 
ATOM     18  H6  UNL     1     148.512 162.543 169.791  0.00  0.00    +0.000 HD
BRANCH  17  19
ATOM     19  S1  UNL     1     148.984 160.814 168.219  0.00  0.00    +0.000 S 
ATOM     20  O2  UNL     1     147.819 159.924 168.626  0.00  0.00    +0.000 OA
ATOM     21  O3  UNL     1     148.987 160.812 166.692  0.00  0.00    +0.000 OA
BRANCH  19  22
ATOM     22  C6  UNL     1     150.487 160.174 168.815  0.00  0.00    +0.000 A 
ATOM     23  C7  UNL     1     151.681 160.668 168.276  0.00  0.00    +0.000 A 
ATOM     24  C8  UNL     1     152.912 160.190 168.687  0.00  0.00    +0.000 A 
ATOM     25  C9  UNL     1     153.005 159.214 169.640  0.00  0.00    +0.000 A 
ATOM     26 CL1  UNL     1     154.507 158.557 170.213  0.00  0.00    +0.000 Cl
ATOM     27  C10 UNL     1     151.814 158.729 170.170  0.00  0.00    +0.000 A 
ATOM     28  C11 UNL     1     150.588 159.197 169.769  0.00  0.00    +0.000 A 
ENDBRANCH  19  22
ENDBRANCH  17  19
ENDBRANCH   3  17
TORSDOF 4
ENDMDL
MODEL 3
REMARK VINA RESULT:      -6.1      2.882      5.009
REMARK  Name = ./3D_structures\o67_MMV1579779_3D.pdb
REMARK  5 active torsions:
REMARK  status: ('A' for Active; 'I' for Inactive)
REMARK    1  A    between atoms: C1_1  and  C2_2
REMARK    2  A    between atoms: N1_4  and  C3_5
REMARK    3  A    between atoms: C5_7  and  N2_8
REMARK    4  A    between atoms: N2_8  and  S1_9
REMARK    5  A    between atoms: S1_9  and  C6_12
REMARK                            x       y       z     vdW  Elec       q    Type
REMARK                         _______ _______ _______ _____ _____    ______ ____
ROOT
ATOM      1  C3  UNL     1     146.554 164.842 167.049  0.00  0.00    +0.000 A 
ATOM      2  C4  UNL     1     147.493 165.237 166.148  0.00  0.00    +0.000 A 
ATOM      3  C5  UNL     1     148.804 165.600 166.548  0.00  0.00    +0.000 A 
ATOM      4  C12 UNL     1     149.151 165.559 167.871  0.00  0.00    +0.000 A 
ATOM      5  C13 UNL     1     148.221 165.164 168.803  0.00  0.00    +0.000 A 
ATOM      6  C14 UNL     1     148.303 165.033 170.188  0.00  0.00    +0.000 A 
ATOM      7 CL2  UNL     1     149.675 165.344 171.214  0.00  0.00    +0.000 Cl
ATOM      8  N3  UNL     1     147.082 164.609 170.564  0.00  0.00    +0.000 NA
ATOM      9  N4  UNL     1     146.288 164.484 169.489  0.00  0.00    +0.000 N 
ATOM     10  C15 UNL     1     146.976 164.822 168.388  0.00  0.00    +0.000 A 
ATOM     11  H12 UNL     1     145.280 164.166 169.517  0.00  0.00    +0.000 HD
ENDROOT
BRANCH   1  15
ATOM     12  C1  UNL     1     143.354 162.988 165.889  0.00  0.00    +0.000 C 
ATOM     13  C2  UNL     1     144.805 163.253 166.195  0.00  0.00    +0.000 C 
ATOM     14  O1  UNL     1     145.632 162.342 165.966  0.00  0.00    +0.000 OA
ATOM     15  N1  UNL     1     145.241 164.471 166.722  0.00  0.00    +0.000 N 
ATOM     16  H4  UNL     1     144.454 165.187 166.883  0.00  0.00    +0.000 HD
ENDBRANCH   1  15
BRANCH   3  17
ATOM     17  N2  UNL     1     149.722 165.987 165.526  0.00  0.00    +0.000 N 
ATOM     18  H6  UNL     1     149.276 166.428 164.679  0.00  0.00    +0.000 HD
BRANCH  17  19
ATOM     19  S1  UNL     1     151.404 165.806 165.557  0.00  0.00    +0.000 S 
ATOM     20  O2  UNL     1     151.944 166.468 164.297  0.00  0.00    +0.000 OA
ATOM     21  O3  UNL     1     151.961 166.623 166.720  0.00  0.00    +0.000 OA
BRANCH  19  22
ATOM     22  C6  UNL     1     151.952 164.160 165.673  0.00  0.00    +0.000 A 
ATOM     23  C7  UNL     1     152.091 163.420 164.494  0.00  0.00    +0.000 A 
ATOM     24  C8  UNL     1     152.501 162.099 164.513  0.00  0.00    +0.000 A 
ATOM     25  C9  UNL     1     152.787 161.468 165.692  0.00  0.00    +0.000 A 
ATOM     26 CL1  UNL     1     153.306 159.816 165.807  0.00  0.00    +0.000 Cl
ATOM     27  C10 UNL     1     152.645 162.211 166.859  0.00  0.00    +0.000 A 
ATOM     28  C11 UNL     1     152.239 163.523 166.850  0.00  0.00    +0.000 A 
ENDBRANCH  19  22
ENDBRANCH  17  19
ENDBRANCH   3  17
TORSDOF 4
ENDMDL
MODEL 4
REMARK VINA RESULT:      -6.0      2.044      2.642
REMARK  Name = ./3D_structures\o67_MMV1579779_3D.pdb
REMARK  5 active torsions:
REMARK  status: ('A' for Active; 'I' for Inactive)
REMARK    1  A    between atoms: C1_1  and  C2_2
REMARK    2  A    between atoms: N1_4  and  C3_5
REMARK    3  A    between atoms: C5_7  and  N2_8
REMARK    4  A    between atoms: N2_8  and  S1_9
REMARK    5  A    between atoms: S1_9  and  C6_12
REMARK                            x       y       z     vdW  Elec       q    Type
REMARK                         _______ _______ _______ _____ _____    ______ ____
ROOT
ATOM      1  C3  UNL     1     150.912 164.047 166.439  0.00  0.00    +0.000 A 
ATOM      2  C4  UNL     1     150.840 162.793 166.960  0.00  0.00    +0.000 A 
ATOM      3  C5  UNL     1     149.654 162.303 167.563  0.00  0.00    +0.000 A 
ATOM      4  C12 UNL     1     148.542 163.099 167.632  0.00  0.00    +0.000 A 
ATOM      5  C13 UNL     1     148.588 164.370 167.112  0.00  0.00    +0.000 A 
ATOM      6  C14 UNL     1     147.623 165.374 167.048  0.00  0.00    +0.000 A 
ATOM      7 CL2  UNL     1     145.984 165.323 167.633  0.00  0.00    +0.000 Cl
ATOM      8  N3  UNL     1     148.238 166.400 166.429  0.00  0.00    +0.000 NA
ATOM      9  N4  UNL     1     149.501 166.064 166.127  0.00  0.00    +0.000 N 
ATOM     10  C15 UNL     1     149.738 164.809 166.542  0.00  0.00    +0.000 A 
ATOM     11  H12 UNL     1     150.194 166.696 165.639  0.00  0.00    +0.000 HD
ENDROOT
BRANCH   1  15
ATOM     12  C1  UNL     1     153.746 165.056 163.994  0.00  0.00    +0.000 C 
ATOM     13  C2  UNL     1     152.494 164.402 164.520  0.00  0.00    +0.000 C 
ATOM     14  O1  UNL     1     151.842 163.668 163.744  0.00  0.00    +0.000 OA
ATOM     15  N1  UNL     1     152.052 164.594 165.830  0.00  0.00    +0.000 N 
ATOM     16  H4  UNL     1     152.681 165.242 166.416  0.00  0.00    +0.000 HD
ENDBRANCH   1  15
BRANCH   3  17
ATOM     17  N2  UNL     1     149.674 160.969 168.068  0.00  0.00    +0.000 N 
ATOM     18  H6  UNL     1     149.015 160.306 167.583  0.00  0.00    +0.000 HD
BRANCH  17  19
ATOM     19  S1  UNL     1     150.631 160.381 169.334  0.00  0.00    +0.000 S 
ATOM     20  O2  UNL     1     150.970 161.570 170.222  0.00  0.00    +0.000 OA
ATOM     21  O3  UNL     1     149.780 159.454 170.199  0.00  0.00    +0.000 OA
BRANCH  19  22
ATOM     22  C6  UNL     1     152.075 159.558 168.826  0.00  0.00    +0.000 A 
ATOM     23  C7  UNL     1     152.452 158.393 169.505  0.00  0.00    +0.000 A 
ATOM     24  C8  UNL     1     153.600 157.700 169.169  0.00  0.00    +0.000 A 
ATOM     25  C9  UNL     1     154.411 158.129 168.155  0.00  0.00    +0.000 A 
ATOM     26 CL1  UNL     1     155.868 157.320 167.669  0.00  0.00    +0.000 Cl
ATOM     27  C10 UNL     1     154.029 159.287 167.487  0.00  0.00    +0.000 A 
ATOM     28  C11 UNL     1     152.892 159.983 167.812  0.00  0.00    +0.000 A 
ENDBRANCH  19  22
ENDBRANCH  17  19
ENDBRANCH   3  17
TORSDOF 4
ENDMDL
MODEL 5
REMARK VINA RESULT:      -6.0      9.584     11.459
REMARK  Name = ./3D_structures\o67_MMV1579779_3D.pdb
REMARK  5 active torsions:
REMARK  status: ('A' for Active; 'I' for Inactive)
REMARK    1  A    between atoms: C1_1  and  C2_2
REMARK    2  A    between atoms: N1_4  and  C3_5
REMARK    3  A    between atoms: C5_7  and  N2_8
REMARK    4  A    between atoms: N2_8  and  S1_9
REMARK    5  A    between atoms: S1_9  and  C6_12
REMARK                            x       y       z     vdW  Elec       q    Type
REMARK                         _______ _______ _______ _____ _____    ______ ____
ROOT
ATOM      1  C3  UNL     1     157.357 158.430 170.223  0.00  0.00    +0.000 A 
ATOM      2  C4  UNL     1     158.619 158.769 169.845  0.00  0.00    +0.000 A 
ATOM      3  C5  UNL     1     159.073 158.588 168.515  0.00  0.00    +0.000 A 
ATOM      4  C12 UNL     1     158.233 158.059 167.571  0.00  0.00    +0.000 A 
ATOM      5  C13 UNL     1     156.952 157.709 167.926  0.00  0.00    +0.000 A 
ATOM      6  C14 UNL     1     155.907 157.161 167.184  0.00  0.00    +0.000 A 
ATOM      7 CL2  UNL     1     155.903 156.732 165.497  0.00  0.00    +0.000 Cl
ATOM      8  N3  UNL     1     154.894 157.035 168.062  0.00  0.00    +0.000 NA
ATOM      9  N4  UNL     1     155.276 157.472 169.271  0.00  0.00    +0.000 N 
ATOM     10  C15 UNL     1     156.549 157.895 169.208  0.00  0.00    +0.000 A 
ATOM     11  H12 UNL     1     154.663 157.479 170.132  0.00  0.00    +0.000 HD
ENDROOT
BRANCH   1  15
ATOM     12  C1  UNL     1     155.644 159.699 173.460  0.00  0.00    +0.000 C 
ATOM     13  C2  UNL     1     156.138 159.670 172.037  0.00  0.00    +0.000 C 
ATOM     14  O1  UNL     1     155.898 160.658 171.309  0.00  0.00    +0.000 OA
ATOM     15  N1  UNL     1     156.846 158.582 171.521  0.00  0.00    +0.000 N 
ATOM     16  H4  UNL     1     157.000 157.784 172.226  0.00  0.00    +0.000 HD
ENDBRANCH   1  15
BRANCH   3  17
ATOM     17  N2  UNL     1     160.409 158.987 168.213  0.00  0.00    +0.000 N 
ATOM     18  H6  UNL     1     161.135 158.240 168.368  0.00  0.00    +0.000 HD
BRANCH  17  19
ATOM     19  S1  UNL     1     160.909 160.502 167.648  0.00  0.00    +0.000 S 
ATOM     20  O2  UNL     1     162.262 160.301 166.980  0.00  0.00    +0.000 OA
ATOM     21  O3  UNL     1     159.964 160.942 166.533  0.00  0.00    +0.000 OA
BRANCH  19  22
ATOM     22  C6  UNL     1     161.000 161.734 168.870  0.00  0.00    +0.000 A 
ATOM     23  C7  UNL     1     162.260 162.230 169.224  0.00  0.00    +0.000 A 
ATOM     24  C8  UNL     1     162.409 163.195 170.203  0.00  0.00    +0.000 A 
ATOM     25  C9  UNL     1     161.323 163.702 170.862  0.00  0.00    +0.000 A 
ATOM     26 CL1  UNL     1     161.420 164.914 172.102  0.00  0.00    +0.000 Cl
ATOM     27  C10 UNL     1     160.076 163.205 170.504  0.00  0.00    +0.000 A 
ATOM     28  C11 UNL     1     159.917 162.247 169.533  0.00  0.00    +0.000 A 
ENDBRANCH  19  22
ENDBRANCH  17  19
ENDBRANCH   3  17
TORSDOF 4
ENDMDL
MODEL 6
REMARK VINA RESULT:      -5.9      3.213      5.155
REMARK  Name = ./3D_structures\o67_MMV1579779_3D.pdb
REMARK  5 active torsions:
REMARK  status: ('A' for Active; 'I' for Inactive)
REMARK    1  A    between atoms: C1_1  and  C2_2
REMARK    2  A    between atoms: N1_4  and  C3_5
REMARK    3  A    between atoms: C5_7  and  N2_8
REMARK    4  A    between atoms: N2_8  and  S1_9
REMARK    5  A    between atoms: S1_9  and  C6_12
REMARK                            x       y       z     vdW  Elec       q    Type
REMARK                         _______ _______ _______ _____ _____    ______ ____
ROOT
ATOM      1  C3  UNL     1     144.966 162.923 168.361  0.00  0.00    +0.000 A 
ATOM      2  C4  UNL     1     145.912 163.284 169.268  0.00  0.00    +0.000 A 
ATOM      3  C5  UNL     1     146.577 164.534 169.195  0.00  0.00    +0.000 A 
ATOM      4  C12 UNL     1     146.271 165.413 168.191  0.00  0.00    +0.000 A 
ATOM      5  C13 UNL     1     145.319 165.073 167.261  0.00  0.00    +0.000 A 
ATOM      6  C14 UNL     1     144.822 165.763 166.156  0.00  0.00    +0.000 A 
ATOM      7 CL2  UNL     1     145.277 167.345 165.588  0.00  0.00    +0.000 Cl
ATOM      8  N3  UNL     1     143.906 164.935 165.620  0.00  0.00    +0.000 NA
ATOM      9  N4  UNL     1     143.833 163.803 166.337  0.00  0.00    +0.000 N 
ATOM     10  C15 UNL     1     144.701 163.869 167.359  0.00  0.00    +0.000 A 
ATOM     11  H12 UNL     1     143.190 162.992 166.123  0.00  0.00    +0.000 HD
ENDROOT
BRANCH   1  15
ATOM     12  C1  UNL     1     143.778 159.271 167.835  0.00  0.00    +0.000 C 
ATOM     13  C2  UNL     1     144.622 160.514 167.732  0.00  0.00    +0.000 C 
ATOM     14  O1  UNL     1     145.667 160.463 167.046  0.00  0.00    +0.000 OA
ATOM     15  N1  UNL     1     144.272 161.703 168.375  0.00  0.00    +0.000 N 
ATOM     16  H4  UNL     1     143.357 161.644 168.940  0.00  0.00    +0.000 HD
ENDBRANCH   1  15
BRANCH   3  17
ATOM     17  N2  UNL     1     147.544 164.827 170.202  0.00  0.00    +0.000 N 
ATOM     18  H6  UNL     1     147.143 164.994 171.161  0.00  0.00    +0.000 HD
BRANCH  17  19
ATOM     19  S1  UNL     1     149.221 164.925 169.995  0.00  0.00    +0.000 S 
ATOM     20  O2  UNL     1     149.539 166.370 169.637  0.00  0.00    +0.000 OA
ATOM     21  O3  UNL     1     149.894 164.680 171.344  0.00  0.00    +0.000 OA
BRANCH  19  22
ATOM     22  C6  UNL     1     149.867 163.836 168.804  0.00  0.00    +0.000 A 
ATOM     23  C7  UNL     1     150.505 164.378 167.682  0.00  0.00    +0.000 A 
ATOM     24  C8  UNL     1     151.023 163.571 166.685  0.00  0.00    +0.000 A 
ATOM     25  C9  UNL     1     150.930 162.209 166.763  0.00  0.00    +0.000 A 
ATOM     26 CL1  UNL     1     151.551 161.125 165.558  0.00  0.00    +0.000 Cl
ATOM     27  C10 UNL     1     150.295 161.680 167.880  0.00  0.00    +0.000 A 
ATOM     28  C11 UNL     1     149.778 162.471 168.875  0.00  0.00    +0.000 A 
ENDBRANCH  19  22
ENDBRANCH  17  19
ENDBRANCH   3  17
TORSDOF 4
ENDMDL
MODEL 7
REMARK VINA RESULT:      -5.9      7.317      8.864
REMARK  Name = ./3D_structures\o67_MMV1579779_3D.pdb
REMARK  5 active torsions:
REMARK  status: ('A' for Active; 'I' for Inactive)
REMARK    1  A    between atoms: C1_1  and  C2_2
REMARK    2  A    between atoms: N1_4  and  C3_5
REMARK    3  A    between atoms: C5_7  and  N2_8
REMARK    4  A    between atoms: N2_8  and  S1_9
REMARK    5  A    between atoms: S1_9  and  C6_12
REMARK                            x       y       z     vdW  Elec       q    Type
REMARK                         _______ _______ _______ _____ _____    ______ ____
ROOT
ATOM      1  C3  UNL     1     154.730 159.739 170.850  0.00  0.00    +0.000 A 
ATOM      2  C4  UNL     1     155.325 158.866 169.994  0.00  0.00    +0.000 A 
ATOM      3  C5  UNL     1     154.570 157.947 169.223  0.00  0.00    +0.000 A 
ATOM      4  C12 UNL     1     153.205 157.924 169.329  0.00  0.00    +0.000 A 
ATOM      5  C13 UNL     1     152.579 158.796 170.187  0.00  0.00    +0.000 A 
ATOM      6  C14 UNL     1     151.230 158.985 170.486  0.00  0.00    +0.000 A 
ATOM      7 CL2  UNL     1     149.860 158.133 169.833  0.00  0.00    +0.000 Cl
ATOM      8  N3  UNL     1     151.218 159.977 171.396  0.00  0.00    +0.000 NA
ATOM      9  N4  UNL     1     152.471 160.382 171.651  0.00  0.00    +0.000 N 
ATOM     10  C15 UNL     1     153.330 159.663 170.911  0.00  0.00    +0.000 A 
ATOM     11  H12 UNL     1     152.732 161.150 172.330  0.00  0.00    +0.000 HD
ENDROOT
BRANCH   1  15
ATOM     12  C1  UNL     1     156.586 161.609 173.693  0.00  0.00    +0.000 C 
ATOM     13  C2  UNL     1     155.855 160.516 172.959  0.00  0.00    +0.000 C 
ATOM     14  O1  UNL     1     155.642 159.441 173.562  0.00  0.00    +0.000 OA
ATOM     15  N1  UNL     1     155.416 160.672 171.642  0.00  0.00    +0.000 N 
ATOM     16  H4  UNL     1     155.648 161.632 171.213  0.00  0.00    +0.000 HD
ENDBRANCH   1  15
BRANCH   3  17
ATOM     17  N2  UNL     1     155.285 157.081 168.343  0.00  0.00    +0.000 N 
ATOM     18  H6  UNL     1     155.308 156.072 168.644  0.00  0.00    +0.000 HD
BRANCH  17  19
ATOM     19  S1  UNL     1     156.070 157.519 166.909  0.00  0.00    +0.000 S 
ATOM     20  O2  UNL     1     155.771 156.430 165.889  0.00  0.00    +0.000 OA
ATOM     21  O3  UNL     1     155.414 158.784 166.361  0.00  0.00    +0.000 OA
BRANCH  19  22
ATOM     22  C6  UNL     1     157.784 157.763 167.069  0.00  0.00    +0.000 A 
ATOM     23  C7  UNL     1     158.618 157.328 166.032  0.00  0.00    +0.000 A 
ATOM     24  C8  UNL     1     159.992 157.470 166.102  0.00  0.00    +0.000 A 
ATOM     25  C9  UNL     1     160.586 158.043 167.192  0.00  0.00    +0.000 A 
ATOM     26 CL1  UNL     1     162.300 158.260 167.361  0.00  0.00    +0.000 Cl
ATOM     27  C10 UNL     1     159.750 158.472 168.216  0.00  0.00    +0.000 A 
ATOM     28  C11 UNL     1     158.385 158.336 168.157  0.00  0.00    +0.000 A 
ENDBRANCH  19  22
ENDBRANCH  17  19
ENDBRANCH   3  17
TORSDOF 4
ENDMDL
MODEL 8
REMARK VINA RESULT:      -5.9      6.924      9.345
REMARK  Name = ./3D_structures\o67_MMV1579779_3D.pdb
REMARK  5 active torsions:
REMARK  status: ('A' for Active; 'I' for Inactive)
REMARK    1  A    between atoms: C1_1  and  C2_2
REMARK    2  A    between atoms: N1_4  and  C3_5
REMARK    3  A    between atoms: C5_7  and  N2_8
REMARK    4  A    between atoms: N2_8  and  S1_9
REMARK    5  A    between atoms: S1_9  and  C6_12
REMARK                            x       y       z     vdW  Elec       q    Type
REMARK                         _______ _______ _______ _____ _____    ______ ____
ROOT
ATOM      1  C3  UNL     1     155.206 157.796 168.517  0.00  0.00    +0.000 A 
ATOM      2  C4  UNL     1     153.983 158.338 168.273  0.00  0.00    +0.000 A 
ATOM      3  C5  UNL     1     153.323 159.148 169.230  0.00  0.00    +0.000 A 
ATOM      4  C12 UNL     1     153.916 159.403 170.437  0.00  0.00    +0.000 A 
ATOM      5  C13 UNL     1     155.153 158.868 170.709  0.00  0.00    +0.000 A 
ATOM      6  C14 UNL     1     155.971 158.963 171.833  0.00  0.00    +0.000 A 
ATOM      7 CL2  UNL     1     155.663 159.832 173.310  0.00  0.00    +0.000 Cl
ATOM      8  N3  UNL     1     157.059 158.232 171.527  0.00  0.00    +0.000 NA
ATOM      9  N4  UNL     1     156.933 157.714 170.296  0.00  0.00    +0.000 N 
ATOM     10  C15 UNL     1     155.758 158.096 169.772  0.00  0.00    +0.000 A 
ATOM     11  H12 UNL     1     157.652 157.101 169.822  0.00  0.00    +0.000 HD
ENDROOT
BRANCH   1  15
ATOM     12  C1  UNL     1     157.756 156.316 166.000  0.00  0.00    +0.000 C 
ATOM     13  C2  UNL     1     157.102 157.288 166.947  0.00  0.00    +0.000 C 
ATOM     14  O1  UNL     1     157.653 158.396 167.130  0.00  0.00    +0.000 OA
ATOM     15  N1  UNL     1     155.913 156.985 167.615  0.00  0.00    +0.000 N 
ATOM     16  H4  UNL     1     155.520 156.009 167.391  0.00  0.00    +0.000 HD
ENDBRANCH   1  15
BRANCH   3  17
ATOM     17  N2  UNL     1     152.047 159.682 168.875  0.00  0.00    +0.000 N 
ATOM     18  H6  UNL     1     152.029 160.201 167.959  0.00  0.00    +0.000 HD
BRANCH  17  19
ATOM     19  S1  UNL     1     150.615 159.556 169.767  0.00  0.00    +0.000 S 
ATOM     20  O2  UNL     1     150.806 160.383 171.030  0.00  0.00    +0.000 OA
ATOM     21  O3  UNL     1     149.495 160.246 168.991  0.00  0.00    +0.000 OA
BRANCH  19  22
ATOM     22  C6  UNL     1     150.148 157.928 170.159  0.00  0.00    +0.000 A 
ATOM     23  C7  UNL     1     148.810 157.558 169.982  0.00  0.00    +0.000 A 
ATOM     24  C8  UNL     1     148.365 156.286 170.294  0.00  0.00    +0.000 A 
ATOM     25  C9  UNL     1     149.221 155.342 170.787  0.00  0.00    +0.000 A 
ATOM     26 CL1  UNL     1     148.746 153.725 171.204  0.00  0.00    +0.000 Cl
ATOM     27  C10 UNL     1     150.548 155.718 170.959  0.00  0.00    +0.000 A 
ATOM     28  C11 UNL     1     151.001 156.977 170.653  0.00  0.00    +0.000 A 
ENDBRANCH  19  22
ENDBRANCH  17  19
ENDBRANCH   3  17
TORSDOF 4
ENDMDL
MODEL 9
REMARK VINA RESULT:      -5.8     10.639     13.224
REMARK  Name = ./3D_structures\o67_MMV1579779_3D.pdb
REMARK  5 active torsions:
REMARK  status: ('A' for Active; 'I' for Inactive)
REMARK    1  A    between atoms: C1_1  and  C2_2
REMARK    2  A    between atoms: N1_4  and  C3_5
REMARK    3  A    between atoms: C5_7  and  N2_8
REMARK    4  A    between atoms: N2_8  and  S1_9
REMARK    5  A    between atoms: S1_9  and  C6_12
REMARK                            x       y       z     vdW  Elec       q    Type
REMARK                         _______ _______ _______ _____ _____    ______ ____
ROOT
ATOM      1  C3  UNL     1     158.457 158.778 167.999  0.00  0.00    +0.000 A 
ATOM      2  C4  UNL     1     159.736 159.105 167.672  0.00  0.00    +0.000 A 
ATOM      3  C5  UNL     1     160.409 158.489 166.588  0.00  0.00    +0.000 A 
ATOM      4  C12 UNL     1     159.771 157.536 165.839  0.00  0.00    +0.000 A 
ATOM      5  C13 UNL     1     158.478 157.188 166.148  0.00  0.00    +0.000 A 
ATOM      6  C14 UNL     1     157.607 156.269 165.565  0.00  0.00    +0.000 A 
ATOM      7 CL2  UNL     1     157.904 155.230 164.200  0.00  0.00    +0.000 Cl
ATOM      8  N3  UNL     1     156.478 156.359 166.293  0.00  0.00    +0.000 NA
ATOM      9  N4  UNL     1     156.629 157.271 167.265  0.00  0.00    +0.000 N 
ATOM     10  C15 UNL     1     157.862 157.797 167.192  0.00  0.00    +0.000 A 
ATOM     11  H12 UNL     1     155.887 157.529 167.972  0.00  0.00    +0.000 HD
ENDROOT
BRANCH   1  15
ATOM     12  C1  UNL     1     156.975 159.729 171.453  0.00  0.00    +0.000 C 
ATOM     13  C2  UNL     1     157.816 159.031 170.416  0.00  0.00    +0.000 C 
ATOM     14  O1  UNL     1     158.608 158.141 170.800  0.00  0.00    +0.000 OA
ATOM     15  N1  UNL     1     157.735 159.349 169.058  0.00  0.00    +0.000 N 
ATOM     16  H4  UNL     1     157.026 160.126 168.831  0.00  0.00    +0.000 HD
ENDBRANCH   1  15
BRANCH   3  17
ATOM     17  N2  UNL     1     161.745 158.910 166.315  0.00  0.00    +0.000 N 
ATOM     18  H6  UNL     1     161.819 159.810 165.773  0.00  0.00    +0.000 HD
BRANCH  17  19
ATOM     19  S1  UNL     1     163.168 158.115 166.770  0.00  0.00    +0.000 S 
ATOM     20  O2  UNL     1     162.763 156.743 167.288  0.00  0.00    +0.000 OA
ATOM     21  O3  UNL     1     164.001 157.851 165.518  0.00  0.00    +0.000 OA
BRANCH  19  22
ATOM     22  C6  UNL     1     164.124 158.964 167.949  0.00  0.00    +0.000 A 
ATOM     23  C7  UNL     1     163.904 160.335 168.122  0.00  0.00    +0.000 A 
ATOM     24  C8  UNL     1     164.642 161.077 169.026  0.00  0.00    +0.000 A 
ATOM     25  C9  UNL     1     165.616 160.493 169.787  0.00  0.00    +0.000 A 
ATOM     26 CL1  UNL     1     166.588 161.349 170.943  0.00  0.00    +0.000 Cl
ATOM     27  C10 UNL     1     165.828 159.131 169.608  0.00  0.00    +0.000 A 
ATOM     28  C11 UNL     1     165.101 158.385 168.714  0.00  0.00    +0.000 A 
ENDBRANCH  19  22
ENDBRANCH  17  19
ENDBRANCH   3  17
TORSDOF 4
ENDMDL
