MODEL 1
REMARK VINA RESULT:      -5.3      0.000      0.000
REMARK  Name = ./3D_structures\o68_MMV1579778_3D.pdb
REMARK  10 active torsions:
REMARK  status: ('A' for Active; 'I' for Inactive)
REMARK    1  A    between atoms: C1_1  and  C2_2
REMARK    2  A    between atoms: C2_2  and  N1_3
REMARK    3  A    between atoms: C2_2  and  C14_21
REMARK    4  A    between atoms: N1_3  and  C3_4
REMARK    5  A    between atoms: C3_4  and  C4_5
REMARK    6  A    between atoms: C3_4  and  C13_18
REMARK    7  A    between atoms: C4_5  and  C5_6
REMARK    8  A    between atoms: C5_6  and  C6_8
REMARK    9  A    between atoms: C11_13  and  C12_14
REMARK   10  A    between atoms: C13_18  and  O3_20
REMARK                            x       y       z     vdW  Elec       q    Type
REMARK                         _______ _______ _______ _____ _____    ______ ____
ROOT
ATOM      1  C3  UNL     1     154.808 157.731 169.194  0.00  0.00    +0.000 C 
ENDROOT
BRANCH   1   2
ATOM      2  N1  UNL     1     154.992 157.305 167.853  0.00  0.00    +0.000 NA
ATOM      3  H5  UNL     1     154.538 156.430 167.605  0.00  0.00    +0.000 HD
BRANCH   2   5
ATOM      4  C1  UNL     1     155.460 159.672 167.225  0.00  0.00    +0.000 C 
ATOM      5  C2  UNL     1     155.281 158.232 166.843  0.00  0.00    +0.000 C 
BRANCH   5   6
ATOM      6  C14 UNL     1     156.566 157.808 166.215  0.00  0.00    +0.000 A 
ATOM      7  C15 UNL     1     157.339 158.711 165.521  0.00  0.00    +0.000 A 
ATOM      8  C16 UNL     1     158.534 158.309 164.936  0.00  0.00    +0.000 A 
ATOM      9  C17 UNL     1     158.927 156.988 165.069  0.00  0.00    +0.000 A 
ATOM     10  C18 UNL     1     158.153 156.093 165.764  0.00  0.00    +0.000 A 
ATOM     11  C19 UNL     1     156.958 156.499 166.346  0.00  0.00    +0.000 A 
ENDBRANCH   5   6
ENDBRANCH   2   5
ENDBRANCH   1   2
BRANCH   1  12
ATOM     12  C13 UNL     1     153.458 157.959 169.660  0.00  0.00    +0.000 C 
ATOM     13  O2  UNL     1     153.057 159.133 169.925  0.00  0.00    +0.000 OA
BRANCH  12  14
ATOM     14  O3  UNL     1     152.554 156.926 169.841  0.00  0.00    +0.000 OA
ATOM     15  H13 UNL     1     151.842 156.777 169.137  0.00  0.00    +0.000 HD
ENDBRANCH  12  14
ENDBRANCH   1  12
BRANCH   1  16
ATOM     16  C4  UNL     1     155.684 157.043 170.175  0.00  0.00    +0.000 C 
BRANCH  16  17
ATOM     17  C5  UNL     1     156.654 157.939 170.838  0.00  0.00    +0.000 C 
ATOM     18  O1  UNL     1     156.641 158.082 172.090  0.00  0.00    +0.000 OA
BRANCH  17  19
ATOM     19  C6  UNL     1     157.662 158.686 170.051  0.00  0.00    +0.000 A 
ATOM     20  C7  UNL     1     158.557 157.994 169.254  0.00  0.00    +0.000 A 
ATOM     21  C8  UNL     1     159.512 158.661 168.505  0.00  0.00    +0.000 A 
ATOM     22  C9  UNL     1     159.559 160.031 168.567  0.00  0.00    +0.000 A 
ATOM     23  C10 UNL     1     158.686 160.734 169.347  0.00  0.00    +0.000 A 
ATOM     24  C11 UNL     1     157.734 160.053 170.091  0.00  0.00    +0.000 A 
BRANCH  24  25
ATOM     25  C12 UNL     1     156.821 160.893 170.925  0.00  0.00    +0.000 C 
ATOM     26  F1  UNL     1     157.026 162.238 170.562  0.00  0.00    +0.000 F 
ATOM     27  F2  UNL     1     157.141 160.833 172.256  0.00  0.00    +0.000 F 
ATOM     28  F3  UNL     1     155.514 160.633 170.634  0.00  0.00    +0.000 F 
ENDBRANCH  24  25
ENDBRANCH  17  19
ENDBRANCH  16  17
ENDBRANCH   1  16
TORSDOF 9
ENDMDL
MODEL 2
REMARK VINA RESULT:      -5.3      3.087      6.559
REMARK  Name = ./3D_structures\o68_MMV1579778_3D.pdb
REMARK  10 active torsions:
REMARK  status: ('A' for Active; 'I' for Inactive)
REMARK    1  A    between atoms: C1_1  and  C2_2
REMARK    2  A    between atoms: C2_2  and  N1_3
REMARK    3  A    between atoms: C2_2  and  C14_21
REMARK    4  A    between atoms: N1_3  and  C3_4
REMARK    5  A    between atoms: C3_4  and  C4_5
REMARK    6  A    between atoms: C3_4  and  C13_18
REMARK    7  A    between atoms: C4_5  and  C5_6
REMARK    8  A    between atoms: C5_6  and  C6_8
REMARK    9  A    between atoms: C11_13  and  C12_14
REMARK   10  A    between atoms: C13_18  and  O3_20
REMARK                            x       y       z     vdW  Elec       q    Type
REMARK                         _______ _______ _______ _____ _____    ______ ____
ROOT
ATOM      1  C3  UNL     1     156.302 158.689 169.868  0.00  0.00    +0.000 C 
ENDROOT
BRANCH   1   2
ATOM      2  N1  UNL     1     155.973 159.782 170.709  0.00  0.00    +0.000 NA
ATOM      3  H5  UNL     1     155.957 160.693 170.258  0.00  0.00    +0.000 HD
BRANCH   2   5
ATOM      4  C1  UNL     1     155.885 159.803 173.200  0.00  0.00    +0.000 C 
ATOM      5  C2  UNL     1     155.218 159.587 171.873  0.00  0.00    +0.000 C 
BRANCH   5   6
ATOM      6  C14 UNL     1     154.078 160.547 171.822  0.00  0.00    +0.000 A 
ATOM      7  C15 UNL     1     152.982 160.378 172.637  0.00  0.00    +0.000 A 
ATOM      8  C16 UNL     1     151.921 161.275 172.582  0.00  0.00    +0.000 A 
ATOM      9  C17 UNL     1     151.994 162.336 171.696  0.00  0.00    +0.000 A 
ATOM     10  C18 UNL     1     153.090 162.499 170.886  0.00  0.00    +0.000 A 
ATOM     11  C19 UNL     1     154.148 161.599 170.944  0.00  0.00    +0.000 A 
ENDBRANCH   5   6
ENDBRANCH   2   5
ENDBRANCH   1   2
BRANCH   1  12
ATOM     12  C13 UNL     1     157.681 158.258 169.815  0.00  0.00    +0.000 C 
ATOM     13  O2  UNL     1     158.202 157.894 168.715  0.00  0.00    +0.000 OA
BRANCH  12  14
ATOM     14  O3  UNL     1     158.488 158.216 170.939  0.00  0.00    +0.000 OA
ATOM     15  H13 UNL     1     158.765 159.089 171.369  0.00  0.00    +0.000 HD
ENDBRANCH  12  14
ENDBRANCH   1  12
BRANCH   1  16
ATOM     16  C4  UNL     1     155.317 157.579 169.902  0.00  0.00    +0.000 C 
BRANCH  16  17
ATOM     17  C5  UNL     1     154.289 157.663 168.845  0.00  0.00    +0.000 C 
ATOM     18  O1  UNL     1     154.492 157.151 167.712  0.00  0.00    +0.000 OA
BRANCH  17  19
ATOM     19  C6  UNL     1     152.997 158.345 169.091  0.00  0.00    +0.000 A 
ATOM     20  C7  UNL     1     152.114 157.822 170.018  0.00  0.00    +0.000 A 
ATOM     21  C8  UNL     1     150.898 158.435 170.273  0.00  0.00    +0.000 A 
ATOM     22  C9  UNL     1     150.581 159.579 169.586  0.00  0.00    +0.000 A 
ATOM     23  C10 UNL     1     151.438 160.113 168.666  0.00  0.00    +0.000 A 
ATOM     24  C11 UNL     1     152.651 159.489 168.421  0.00  0.00    +0.000 A 
BRANCH  24  25
ATOM     25  C12 UNL     1     153.530 160.130 167.395  0.00  0.00    +0.000 C 
ATOM     26  F1  UNL     1     152.968 161.379 167.072  0.00  0.00    +0.000 F 
ATOM     27  F2  UNL     1     153.539 159.430 166.217  0.00  0.00    +0.000 F 
ATOM     28  F3  UNL     1     154.762 160.407 167.910  0.00  0.00    +0.000 F 
ENDBRANCH  24  25
ENDBRANCH  17  19
ENDBRANCH  16  17
ENDBRANCH   1  16
TORSDOF 9
ENDMDL
MODEL 3
REMARK VINA RESULT:      -5.3      1.798      2.768
REMARK  Name = ./3D_structures\o68_MMV1579778_3D.pdb
REMARK  10 active torsions:
REMARK  status: ('A' for Active; 'I' for Inactive)
REMARK    1  A    between atoms: C1_1  and  C2_2
REMARK    2  A    between atoms: C2_2  and  N1_3
REMARK    3  A    between atoms: C2_2  and  C14_21
REMARK    4  A    between atoms: N1_3  and  C3_4
REMARK    5  A    between atoms: C3_4  and  C4_5
REMARK    6  A    between atoms: C3_4  and  C13_18
REMARK    7  A    between atoms: C4_5  and  C5_6
REMARK    8  A    between atoms: C5_6  and  C6_8
REMARK    9  A    between atoms: C11_13  and  C12_14
REMARK   10  A    between atoms: C13_18  and  O3_20
REMARK                            x       y       z     vdW  Elec       q    Type
REMARK                         _______ _______ _______ _____ _____    ______ ____
ROOT
ATOM      1  C3  UNL     1     153.885 158.562 168.810  0.00  0.00    +0.000 C 
ENDROOT
BRANCH   1   2
ATOM      2  N1  UNL     1     154.046 159.695 167.972  0.00  0.00    +0.000 NA
ATOM      3  H5  UNL     1     154.492 160.499 168.404  0.00  0.00    +0.000 HD
BRANCH   2   5
ATOM      4  C1  UNL     1     153.111 160.306 165.744  0.00  0.00    +0.000 C 
ATOM      5  C2  UNL     1     154.102 159.551 166.580  0.00  0.00    +0.000 C 
BRANCH   5   6
ATOM      6  C14 UNL     1     155.450 160.021 166.146  0.00  0.00    +0.000 A 
ATOM      7  C15 UNL     1     156.013 159.555 164.979  0.00  0.00    +0.000 A 
ATOM      8  C16 UNL     1     157.271 159.995 164.582  0.00  0.00    +0.000 A 
ATOM      9  C17 UNL     1     157.939 160.906 165.382  0.00  0.00    +0.000 A 
ATOM     10  C18 UNL     1     157.372 161.366 166.544  0.00  0.00    +0.000 A 
ATOM     11  C19 UNL     1     156.114 160.924 166.937  0.00  0.00    +0.000 A 
ENDBRANCH   5   6
ENDBRANCH   2   5
ENDBRANCH   1   2
BRANCH   1  12
ATOM     12  C13 UNL     1     152.592 158.337 169.416  0.00  0.00    +0.000 C 
ATOM     13  O2  UNL     1     151.733 159.271 169.471  0.00  0.00    +0.000 OA
BRANCH  12  14
ATOM     14  O3  UNL     1     152.232 157.116 169.961  0.00  0.00    +0.000 OA
ATOM     15  H13 UNL     1     151.941 156.374 169.337  0.00  0.00    +0.000 HD
ENDBRANCH  12  14
ENDBRANCH   1  12
BRANCH   1  16
ATOM     16  C4  UNL     1     154.542 157.332 168.301  0.00  0.00    +0.000 C 
BRANCH  16  17
ATOM     17  C5  UNL     1     155.879 157.088 168.878  0.00  0.00    +0.000 C 
ATOM     18  O1  UNL     1     156.001 156.697 170.070  0.00  0.00    +0.000 OA
BRANCH  17  19
ATOM     19  C6  UNL     1     157.106 157.293 168.073  0.00  0.00    +0.000 A 
ATOM     20  C7  UNL     1     157.278 156.584 166.897  0.00  0.00    +0.000 A 
ATOM     21  C8  UNL     1     158.412 156.752 166.120  0.00  0.00    +0.000 A 
ATOM     22  C9  UNL     1     159.371 157.639 166.537  0.00  0.00    +0.000 A 
ATOM     23  C10 UNL     1     159.222 158.350 167.694  0.00  0.00    +0.000 A 
ATOM     24  C11 UNL     1     158.081 158.172 168.463  0.00  0.00    +0.000 A 
BRANCH  24  25
ATOM     25  C12 UNL     1     157.996 158.979 169.718  0.00  0.00    +0.000 C 
ATOM     26  F1  UNL     1     158.978 159.986 169.646  0.00  0.00    +0.000 F 
ATOM     27  F2  UNL     1     158.324 158.243 170.825  0.00  0.00    +0.000 F 
ATOM     28  F3  UNL     1     156.805 159.638 169.796  0.00  0.00    +0.000 F 
ENDBRANCH  24  25
ENDBRANCH  17  19
ENDBRANCH  16  17
ENDBRANCH   1  16
TORSDOF 9
ENDMDL
MODEL 4
REMARK VINA RESULT:      -5.2      3.041      5.641
REMARK  Name = ./3D_structures\o68_MMV1579778_3D.pdb
REMARK  10 active torsions:
REMARK  status: ('A' for Active; 'I' for Inactive)
REMARK    1  A    between atoms: C1_1  and  C2_2
REMARK    2  A    between atoms: C2_2  and  N1_3
REMARK    3  A    between atoms: C2_2  and  C14_21
REMARK    4  A    between atoms: N1_3  and  C3_4
REMARK    5  A    between atoms: C3_4  and  C4_5
REMARK    6  A    between atoms: C3_4  and  C13_18
REMARK    7  A    between atoms: C4_5  and  C5_6
REMARK    8  A    between atoms: C5_6  and  C6_8
REMARK    9  A    between atoms: C11_13  and  C12_14
REMARK   10  A    between atoms: C13_18  and  O3_20
REMARK                            x       y       z     vdW  Elec       q    Type
REMARK                         _______ _______ _______ _____ _____    ______ ____
ROOT
ATOM      1  C3  UNL     1     158.119 157.980 167.646  0.00  0.00    +0.000 C 
ENDROOT
BRANCH   1   2
ATOM      2  N1  UNL     1     158.965 158.263 168.749  0.00  0.00    +0.000 NA
ATOM      3  H5  UNL     1     159.816 157.711 168.801  0.00  0.00    +0.000 HD
BRANCH   2   5
ATOM      4  C1  UNL     1     158.873 160.743 168.513  0.00  0.00    +0.000 C 
ATOM      5  C2  UNL     1     158.927 159.516 169.375  0.00  0.00    +0.000 C 
BRANCH   5   6
ATOM      6  C14 UNL     1     157.695 159.547 170.217  0.00  0.00    +0.000 A 
ATOM      7  C15 UNL     1     156.736 160.515 170.020  0.00  0.00    +0.000 A 
ATOM      8  C16 UNL     1     155.592 160.540 170.809  0.00  0.00    +0.000 A 
ATOM      9  C17 UNL     1     155.440 159.575 171.790  0.00  0.00    +0.000 A 
ATOM     10  C18 UNL     1     156.400 158.612 171.980  0.00  0.00    +0.000 A 
ATOM     11  C19 UNL     1     157.543 158.592 171.189  0.00  0.00    +0.000 A 
ENDBRANCH   5   6
ENDBRANCH   2   5
ENDBRANCH   1   2
BRANCH   1  12
ATOM     12  C13 UNL     1     158.720 157.865 166.336  0.00  0.00    +0.000 C 
ATOM     13  O2  UNL     1     159.128 156.741 165.909  0.00  0.00    +0.000 OA
BRANCH  12  14
ATOM     14  O3  UNL     1     158.883 158.955 165.497  0.00  0.00    +0.000 OA
ATOM     15  H13 UNL     1     158.266 159.050 164.701  0.00  0.00    +0.000 HD
ENDBRANCH  12  14
ENDBRANCH   1  12
BRANCH   1  16
ATOM     16  C4  UNL     1     157.072 156.967 167.927  0.00  0.00    +0.000 C 
BRANCH  16  17
ATOM     17  C5  UNL     1     155.797 157.217 167.224  0.00  0.00    +0.000 C 
ATOM     18  O1  UNL     1     155.640 156.844 166.031  0.00  0.00    +0.000 OA
BRANCH  17  19
ATOM     19  C6  UNL     1     154.675 157.907 167.902  0.00  0.00    +0.000 A 
ATOM     20  C7  UNL     1     154.011 157.277 168.938  0.00  0.00    +0.000 A 
ATOM     21  C8  UNL     1     152.958 157.894 169.595  0.00  0.00    +0.000 A 
ATOM     22  C9  UNL     1     152.582 159.151 169.197  0.00  0.00    +0.000 A 
ATOM     23  C10 UNL     1     153.223 159.792 168.176  0.00  0.00    +0.000 A 
ATOM     24  C11 UNL     1     154.275 159.163 167.528  0.00  0.00    +0.000 A 
BRANCH  24  25
ATOM     25  C12 UNL     1     154.921 159.927 166.417  0.00  0.00    +0.000 C 
ATOM     26  F1  UNL     1     154.286 161.181 166.336  0.00  0.00    +0.000 F 
ATOM     27  F2  UNL     1     154.704 159.341 165.198  0.00  0.00    +0.000 F 
ATOM     28  F3  UNL     1     156.226 160.198 166.703  0.00  0.00    +0.000 F 
ENDBRANCH  24  25
ENDBRANCH  17  19
ENDBRANCH  16  17
ENDBRANCH   1  16
TORSDOF 9
ENDMDL
MODEL 5
REMARK VINA RESULT:      -5.2      2.464      4.389
REMARK  Name = ./3D_structures\o68_MMV1579778_3D.pdb
REMARK  10 active torsions:
REMARK  status: ('A' for Active; 'I' for Inactive)
REMARK    1  A    between atoms: C1_1  and  C2_2
REMARK    2  A    between atoms: C2_2  and  N1_3
REMARK    3  A    between atoms: C2_2  and  C14_21
REMARK    4  A    between atoms: N1_3  and  C3_4
REMARK    5  A    between atoms: C3_4  and  C4_5
REMARK    6  A    between atoms: C3_4  and  C13_18
REMARK    7  A    between atoms: C4_5  and  C5_6
REMARK    8  A    between atoms: C5_6  and  C6_8
REMARK    9  A    between atoms: C11_13  and  C12_14
REMARK   10  A    between atoms: C13_18  and  O3_20
REMARK                            x       y       z     vdW  Elec       q    Type
REMARK                         _______ _______ _______ _____ _____    ______ ____
ROOT
ATOM      1  C3  UNL     1     156.761 158.400 169.832  0.00  0.00    +0.000 C 
ENDROOT
BRANCH   1   2
ATOM      2  N1  UNL     1     158.091 158.856 169.641  0.00  0.00    +0.000 NA
ATOM      3  H5  UNL     1     158.817 158.157 169.770  0.00  0.00    +0.000 HD
BRANCH   2   5
ATOM      4  C1  UNL     1     158.902 161.207 169.475  0.00  0.00    +0.000 C 
ATOM      5  C2  UNL     1     158.355 159.968 168.830  0.00  0.00    +0.000 C 
BRANCH   5   6
ATOM      6  C14 UNL     1     159.370 159.544 167.822  0.00  0.00    +0.000 A 
ATOM      7  C15 UNL     1     160.119 158.406 168.019  0.00  0.00    +0.000 A 
ATOM      8  C16 UNL     1     161.066 158.017 167.077  0.00  0.00    +0.000 A 
ATOM      9  C17 UNL     1     161.235 158.796 165.945  0.00  0.00    +0.000 A 
ATOM     10  C18 UNL     1     160.484 159.929 165.755  0.00  0.00    +0.000 A 
ATOM     11  C19 UNL     1     159.539 160.314 166.700  0.00  0.00    +0.000 A 
ENDBRANCH   5   6
ENDBRANCH   2   5
ENDBRANCH   1   2
BRANCH   1  12
ATOM     12  C13 UNL     1     156.211 158.440 171.169  0.00  0.00    +0.000 C 
ATOM     13  O2  UNL     1     156.663 157.676 172.076  0.00  0.00    +0.000 OA
BRANCH  12  14
ATOM     14  O3  UNL     1     155.180 159.295 171.520  0.00  0.00    +0.000 OA
ATOM     15  H13 UNL     1     154.493 158.975 172.191  0.00  0.00    +0.000 HD
ENDBRANCH  12  14
ENDBRANCH   1  12
BRANCH   1  16
ATOM     16  C4  UNL     1     155.815 158.824 168.771  0.00  0.00    +0.000 C 
BRANCH  16  17
ATOM     17  C5  UNL     1     155.538 157.776 167.767  0.00  0.00    +0.000 C 
ATOM     18  O1  UNL     1     154.476 157.100 167.823  0.00  0.00    +0.000 OA
BRANCH  17  19
ATOM     19  C6  UNL     1     156.496 157.497 166.672  0.00  0.00    +0.000 A 
ATOM     20  C7  UNL     1     157.311 156.382 166.744  0.00  0.00    +0.000 A 
ATOM     21  C8  UNL     1     158.218 156.091 165.738  0.00  0.00    +0.000 A 
ATOM     22  C9  UNL     1     158.296 156.934 164.659  0.00  0.00    +0.000 A 
ATOM     23  C10 UNL     1     157.502 158.041 164.567  0.00  0.00    +0.000 A 
ATOM     24  C11 UNL     1     156.599 158.320 165.582  0.00  0.00    +0.000 A 
BRANCH  24  25
ATOM     25  C12 UNL     1     155.771 159.553 165.411  0.00  0.00    +0.000 C 
ATOM     26  F1  UNL     1     155.978 160.029 164.102  0.00  0.00    +0.000 F 
ATOM     27  F2  UNL     1     156.191 160.570 166.228  0.00  0.00    +0.000 F 
ATOM     28  F3  UNL     1     154.441 159.265 165.488  0.00  0.00    +0.000 F 
ENDBRANCH  24  25
ENDBRANCH  17  19
ENDBRANCH  16  17
ENDBRANCH   1  16
TORSDOF 9
ENDMDL
MODEL 6
REMARK VINA RESULT:      -5.2      2.165      3.690
REMARK  Name = ./3D_structures\o68_MMV1579778_3D.pdb
REMARK  10 active torsions:
REMARK  status: ('A' for Active; 'I' for Inactive)
REMARK    1  A    between atoms: C1_1  and  C2_2
REMARK    2  A    between atoms: C2_2  and  N1_3
REMARK    3  A    between atoms: C2_2  and  C14_21
REMARK    4  A    between atoms: N1_3  and  C3_4
REMARK    5  A    between atoms: C3_4  and  C4_5
REMARK    6  A    between atoms: C3_4  and  C13_18
REMARK    7  A    between atoms: C4_5  and  C5_6
REMARK    8  A    between atoms: C5_6  and  C6_8
REMARK    9  A    between atoms: C11_13  and  C12_14
REMARK   10  A    between atoms: C13_18  and  O3_20
REMARK                            x       y       z     vdW  Elec       q    Type
REMARK                         _______ _______ _______ _____ _____    ______ ____
ROOT
ATOM      1  C3  UNL     1     155.534 159.743 171.325  0.00  0.00    +0.000 C 
ENDROOT
BRANCH   1   2
ATOM      2  N1  UNL     1     154.465 160.083 170.456  0.00  0.00    +0.000 NA
ATOM      3  H5  UNL     1     154.434 161.054 170.160  0.00  0.00    +0.000 HD
BRANCH   2   5
ATOM      4  C1  UNL     1     152.367 158.961 169.714  0.00  0.00    +0.000 C 
ATOM      5  C2  UNL     1     153.859 159.107 169.654  0.00  0.00    +0.000 C 
BRANCH   5   6
ATOM      6  C14 UNL     1     154.184 159.442 168.237  0.00  0.00    +0.000 A 
ATOM      7  C15 UNL     1     154.004 158.513 167.238  0.00  0.00    +0.000 A 
ATOM      8  C16 UNL     1     154.311 158.830 165.919  0.00  0.00    +0.000 A 
ATOM      9  C17 UNL     1     154.800 160.094 165.638  0.00  0.00    +0.000 A 
ATOM     10  C18 UNL     1     154.977 161.016 166.639  0.00  0.00    +0.000 A 
ATOM     11  C19 UNL     1     154.668 160.694 167.955  0.00  0.00    +0.000 A 
ENDBRANCH   5   6
ENDBRANCH   2   5
ENDBRANCH   1   2
BRANCH   1  12
ATOM     12  C13 UNL     1     155.469 160.193 172.697  0.00  0.00    +0.000 C 
ATOM     13  O2  UNL     1     155.637 159.376 173.653  0.00  0.00    +0.000 OA
BRANCH  12  14
ATOM     14  O3  UNL     1     155.222 161.514 173.032  0.00  0.00    +0.000 OA
ATOM     15  H13 UNL     1     155.643 161.887 173.873  0.00  0.00    +0.000 HD
ENDBRANCH  12  14
ENDBRANCH   1  12
BRANCH   1  16
ATOM     16  C4  UNL     1     156.030 158.353 171.162  0.00  0.00    +0.000 C 
BRANCH  16  17
ATOM     17  C5  UNL     1     157.355 158.266 170.515  0.00  0.00    +0.000 C 
ATOM     18  O1  UNL     1     158.409 158.348 171.201  0.00  0.00    +0.000 OA
BRANCH  17  19
ATOM     19  C6  UNL     1     157.478 158.079 169.051  0.00  0.00    +0.000 A 
ATOM     20  C7  UNL     1     157.075 156.886 168.478  0.00  0.00    +0.000 A 
ATOM     21  C8  UNL     1     157.174 156.677 167.112  0.00  0.00    +0.000 A 
ATOM     22  C9  UNL     1     157.684 157.681 166.329  0.00  0.00    +0.000 A 
ATOM     23  C10 UNL     1     158.088 158.867 166.873  0.00  0.00    +0.000 A 
ATOM     24  C11 UNL     1     157.983 159.062 168.241  0.00  0.00    +0.000 A 
BRANCH  24  25
ATOM     25  C12 UNL     1     158.453 160.383 168.760  0.00  0.00    +0.000 C 
ATOM     26  F1  UNL     1     158.657 161.229 167.654  0.00  0.00    +0.000 F 
ATOM     27  F2  UNL     1     159.678 160.290 169.366  0.00  0.00    +0.000 F 
ATOM     28  F3  UNL     1     157.486 160.988 169.508  0.00  0.00    +0.000 F 
ENDBRANCH  24  25
ENDBRANCH  17  19
ENDBRANCH  16  17
ENDBRANCH   1  16
TORSDOF 9
ENDMDL
MODEL 7
REMARK VINA RESULT:      -5.1      2.722      3.986
REMARK  Name = ./3D_structures\o68_MMV1579778_3D.pdb
REMARK  10 active torsions:
REMARK  status: ('A' for Active; 'I' for Inactive)
REMARK    1  A    between atoms: C1_1  and  C2_2
REMARK    2  A    between atoms: C2_2  and  N1_3
REMARK    3  A    between atoms: C2_2  and  C14_21
REMARK    4  A    between atoms: N1_3  and  C3_4
REMARK    5  A    between atoms: C3_4  and  C4_5
REMARK    6  A    between atoms: C3_4  and  C13_18
REMARK    7  A    between atoms: C4_5  and  C5_6
REMARK    8  A    between atoms: C5_6  and  C6_8
REMARK    9  A    between atoms: C11_13  and  C12_14
REMARK   10  A    between atoms: C13_18  and  O3_20
REMARK                            x       y       z     vdW  Elec       q    Type
REMARK                         _______ _______ _______ _____ _____    ______ ____
ROOT
ATOM      1  C3  UNL     1     153.771 160.310 171.660  0.00  0.00    +0.000 C 
ENDROOT
BRANCH   1   2
ATOM      2  N1  UNL     1     153.054 159.924 170.499  0.00  0.00    +0.000 NA
ATOM      3  H5  UNL     1     152.769 160.684 169.887  0.00  0.00    +0.000 HD
BRANCH   2   5
ATOM      4  C1  UNL     1     152.009 157.728 169.952  0.00  0.00    +0.000 C 
ATOM      5  C2  UNL     1     153.202 158.638 169.962  0.00  0.00    +0.000 C 
BRANCH   5   6
ATOM      6  C14 UNL     1     153.607 158.803 168.536  0.00  0.00    +0.000 A 
ATOM      7  C15 UNL     1     154.331 157.824 167.895  0.00  0.00    +0.000 A 
ATOM      8  C16 UNL     1     154.708 157.985 166.566  0.00  0.00    +0.000 A 
ATOM      9  C17 UNL     1     154.340 159.145 165.908  0.00  0.00    +0.000 A 
ATOM     10  C18 UNL     1     153.617 160.118 166.553  0.00  0.00    +0.000 A 
ATOM     11  C19 UNL     1     153.243 159.953 167.881  0.00  0.00    +0.000 A 
ENDBRANCH   5   6
ENDBRANCH   2   5
ENDBRANCH   1   2
BRANCH   1  12
ATOM     12  C13 UNL     1     153.024 160.576 172.868  0.00  0.00    +0.000 C 
ATOM     13  O2  UNL     1     153.496 161.343 173.763  0.00  0.00    +0.000 OA
BRANCH  12  14
ATOM     14  O3  UNL     1     151.781 160.016 173.109  0.00  0.00    +0.000 OA
ATOM     15  H13 UNL     1     151.476 159.246 172.527  0.00  0.00    +0.000 HD
ENDBRANCH  12  14
ENDBRANCH   1  12
BRANCH   1  16
ATOM     16  C4  UNL     1     155.030 159.553 171.876  0.00  0.00    +0.000 C 
BRANCH  16  17
ATOM     17  C5  UNL     1     156.246 160.294 171.483  0.00  0.00    +0.000 C 
ATOM     18  O1  UNL     1     157.040 160.732 172.357  0.00  0.00    +0.000 OA
BRANCH  17  19
ATOM     19  C6  UNL     1     156.562 160.537 170.056  0.00  0.00    +0.000 A 
ATOM     20  C7  UNL     1     156.190 161.732 169.467  0.00  0.00    +0.000 A 
ATOM     21  C8  UNL     1     156.470 161.993 168.136  0.00  0.00    +0.000 A 
ATOM     22  C9  UNL     1     157.129 161.038 167.404  0.00  0.00    +0.000 A 
ATOM     23  C10 UNL     1     157.506 159.851 167.964  0.00  0.00    +0.000 A 
ATOM     24  C11 UNL     1     157.218 159.604 169.298  0.00  0.00    +0.000 A 
BRANCH  24  25
ATOM     25  C12 UNL     1     157.657 158.280 169.836  0.00  0.00    +0.000 C 
ATOM     26  F1  UNL     1     158.344 157.607 168.808  0.00  0.00    +0.000 F 
ATOM     27  F2  UNL     1     156.593 157.471 170.137  0.00  0.00    +0.000 F 
ATOM     28  F3  UNL     1     158.565 158.435 170.840  0.00  0.00    +0.000 F 
ENDBRANCH  24  25
ENDBRANCH  17  19
ENDBRANCH  16  17
ENDBRANCH   1  16
TORSDOF 9
ENDMDL
MODEL 8
REMARK VINA RESULT:      -5.1      2.544      4.599
REMARK  Name = ./3D_structures\o68_MMV1579778_3D.pdb
REMARK  10 active torsions:
REMARK  status: ('A' for Active; 'I' for Inactive)
REMARK    1  A    between atoms: C1_1  and  C2_2
REMARK    2  A    between atoms: C2_2  and  N1_3
REMARK    3  A    between atoms: C2_2  and  C14_21
REMARK    4  A    between atoms: N1_3  and  C3_4
REMARK    5  A    between atoms: C3_4  and  C4_5
REMARK    6  A    between atoms: C3_4  and  C13_18
REMARK    7  A    between atoms: C4_5  and  C5_6
REMARK    8  A    between atoms: C5_6  and  C6_8
REMARK    9  A    between atoms: C11_13  and  C12_14
REMARK   10  A    between atoms: C13_18  and  O3_20
REMARK                            x       y       z     vdW  Elec       q    Type
REMARK                         _______ _______ _______ _____ _____    ______ ____
ROOT
ATOM      1  C3  UNL     1     154.526 160.205 171.042  0.00  0.00    +0.000 C 
ENDROOT
BRANCH   1   2
ATOM      2  N1  UNL     1     155.863 160.662 171.167  0.00  0.00    +0.000 NA
ATOM      3  H5  UNL     1     155.970 161.632 171.452  0.00  0.00    +0.000 HD
BRANCH   2   5
ATOM      4  C1  UNL     1     156.555 158.367 171.850  0.00  0.00    +0.000 C 
ATOM      5  C2  UNL     1     156.906 159.761 171.419  0.00  0.00    +0.000 C 
BRANCH   5   6
ATOM      6  C14 UNL     1     157.678 159.619 170.150  0.00  0.00    +0.000 A 
ATOM      7  C15 UNL     1     158.547 158.567 169.972  0.00  0.00    +0.000 A 
ATOM      8  C16 UNL     1     159.265 158.442 168.788  0.00  0.00    +0.000 A 
ATOM      9  C17 UNL     1     159.087 159.394 167.800  0.00  0.00    +0.000 A 
ATOM     10  C18 UNL     1     158.218 160.441 167.984  0.00  0.00    +0.000 A 
ATOM     11  C19 UNL     1     157.502 160.562 169.169  0.00  0.00    +0.000 A 
ENDBRANCH   5   6
ENDBRANCH   2   5
ENDBRANCH   1   2
BRANCH   1  12
ATOM     12  C13 UNL     1     153.638 160.372 172.171  0.00  0.00    +0.000 C 
ATOM     13  O2  UNL     1     152.427 160.711 171.995  0.00  0.00    +0.000 OA
BRANCH  12  14
ATOM     14  O3  UNL     1     154.056 160.179 173.477  0.00  0.00    +0.000 OA
ATOM     15  H13 UNL     1     155.040 160.020 173.652  0.00  0.00    +0.000 HD
ENDBRANCH  12  14
ENDBRANCH   1  12
BRANCH   1  16
ATOM     16  C4  UNL     1     153.904 160.500 169.728  0.00  0.00    +0.000 C 
BRANCH  16  17
ATOM     17  C5  UNL     1     153.524 159.293 168.965  0.00  0.00    +0.000 C 
ATOM     18  O1  UNL     1     152.339 158.866 168.991  0.00  0.00    +0.000 OA
BRANCH  17  19
ATOM     19  C6  UNL     1     154.521 158.561 168.150  0.00  0.00    +0.000 A 
ATOM     20  C7  UNL     1     155.156 157.453 168.681  0.00  0.00    +0.000 A 
ATOM     21  C8  UNL     1     156.093 156.745 167.947  0.00  0.00    +0.000 A 
ATOM     22  C9  UNL     1     156.386 157.164 166.674  0.00  0.00    +0.000 A 
ATOM     23  C10 UNL     1     155.772 158.256 166.130  0.00  0.00    +0.000 A 
ATOM     24  C11 UNL     1     154.835 158.955 166.876  0.00  0.00    +0.000 A 
BRANCH  24  25
ATOM     25  C12 UNL     1     154.213 160.142 166.214  0.00  0.00    +0.000 C 
ATOM     26  F1  UNL     1     154.689 160.191 164.890  0.00  0.00    +0.000 F 
ATOM     27  F2  UNL     1     154.625 161.320 166.781  0.00  0.00    +0.000 F 
ATOM     28  F3  UNL     1     152.862 159.994 166.111  0.00  0.00    +0.000 F 
ENDBRANCH  24  25
ENDBRANCH  17  19
ENDBRANCH  16  17
ENDBRANCH   1  16
TORSDOF 9
ENDMDL
MODEL 9
REMARK VINA RESULT:      -5.1      2.363      4.733
REMARK  Name = ./3D_structures\o68_MMV1579778_3D.pdb
REMARK  10 active torsions:
REMARK  status: ('A' for Active; 'I' for Inactive)
REMARK    1  A    between atoms: C1_1  and  C2_2
REMARK    2  A    between atoms: C2_2  and  N1_3
REMARK    3  A    between atoms: C2_2  and  C14_21
REMARK    4  A    between atoms: N1_3  and  C3_4
REMARK    5  A    between atoms: C3_4  and  C4_5
REMARK    6  A    between atoms: C3_4  and  C13_18
REMARK    7  A    between atoms: C4_5  and  C5_6
REMARK    8  A    between atoms: C5_6  and  C6_8
REMARK    9  A    between atoms: C11_13  and  C12_14
REMARK   10  A    between atoms: C13_18  and  O3_20
REMARK                            x       y       z     vdW  Elec       q    Type
REMARK                         _______ _______ _______ _____ _____    ______ ____
ROOT
ATOM      1  C3  UNL     1     156.378 157.518 168.027  0.00  0.00    +0.000 C 
ENDROOT
BRANCH   1   2
ATOM      2  N1  UNL     1     155.024 157.779 168.360  0.00  0.00    +0.000 NA
ATOM      3  H5  UNL     1     154.613 157.153 169.047  0.00  0.00    +0.000 HD
BRANCH   2   5
ATOM      4  C1  UNL     1     153.720 159.362 166.943  0.00  0.00    +0.000 C 
ATOM      5  C2  UNL     1     154.484 159.062 168.199  0.00  0.00    +0.000 C 
BRANCH   5   6
ATOM      6  C14 UNL     1     153.530 159.279 169.326  0.00  0.00    +0.000 A 
ATOM      7  C15 UNL     1     153.637 160.390 170.131  0.00  0.00    +0.000 A 
ATOM      8  C16 UNL     1     152.746 160.585 171.181  0.00  0.00    +0.000 A 
ATOM      9  C17 UNL     1     151.755 159.643 171.394  0.00  0.00    +0.000 A 
ATOM     10  C18 UNL     1     151.653 158.537 170.586  0.00  0.00    +0.000 A 
ATOM     11  C19 UNL     1     152.546 158.346 169.538  0.00  0.00    +0.000 A 
ENDBRANCH   5   6
ENDBRANCH   2   5
ENDBRANCH   1   2
BRANCH   1  12
ATOM     12  C13 UNL     1     156.653 156.777 166.816  0.00  0.00    +0.000 C 
ATOM     13  O2  UNL     1     155.729 156.543 165.978  0.00  0.00    +0.000 OA
BRANCH  12  14
ATOM     14  O3  UNL     1     157.915 156.291 166.516  0.00  0.00    +0.000 OA
ATOM     15  H13 UNL     1     158.720 156.856 166.754  0.00  0.00    +0.000 HD
ENDBRANCH  12  14
ENDBRANCH   1  12
BRANCH   1  16
ATOM     16  C4  UNL     1     157.294 158.661 168.264  0.00  0.00    +0.000 C 
BRANCH  16  17
ATOM     17  C5  UNL     1     157.932 158.647 169.596  0.00  0.00    +0.000 C 
ATOM     18  O1  UNL     1     159.039 158.072 169.769  0.00  0.00    +0.000 OA
BRANCH  17  19
ATOM     19  C6  UNL     1     157.291 159.310 170.755  0.00  0.00    +0.000 A 
ATOM     20  C7  UNL     1     156.564 158.555 171.658  0.00  0.00    +0.000 A 
ATOM     21  C8  UNL     1     155.953 159.142 172.754  0.00  0.00    +0.000 A 
ATOM     22  C9  UNL     1     156.079 160.496 172.930  0.00  0.00    +0.000 A 
ATOM     23  C10 UNL     1     156.791 161.262 172.052  0.00  0.00    +0.000 A 
ATOM     24  C11 UNL     1     157.399 160.660 170.959  0.00  0.00    +0.000 A 
BRANCH  24  25
ATOM     25  C12 UNL     1     158.153 161.566 170.040  0.00  0.00    +0.000 C 
ATOM     26  F1  UNL     1     158.325 162.798 170.699  0.00  0.00    +0.000 F 
ATOM     27  F2  UNL     1     157.436 161.865 168.912  0.00  0.00    +0.000 F 
ATOM     28  F3  UNL     1     159.413 161.095 169.814  0.00  0.00    +0.000 F 
ENDBRANCH  24  25
ENDBRANCH  17  19
ENDBRANCH  16  17
ENDBRANCH   1  16
TORSDOF 9
ENDMDL
