MODEL 1
REMARK VINA RESULT:      -6.4      0.000      0.000
REMARK  Name = ./3D_structures\o69_MMV099714_3D.pdb
REMARK  7 active torsions:
REMARK  status: ('A' for Active; 'I' for Inactive)
REMARK    1  A    between atoms: N1_1  and  C1_2
REMARK    2  A    between atoms: C2_3  and  C3_4
REMARK    3  A    between atoms: N2_6  and  C4_7
REMARK    4  A    between atoms: C4_7  and  C5_8
REMARK    5  A    between atoms: N5_23  and  C17_24
REMARK    6  A    between atoms: C17_24  and  C18_25
REMARK    7  A    between atoms: C18_25  and  N6_26
REMARK                            x       y       z     vdW  Elec       q    Type
REMARK                         _______ _______ _______ _____ _____    ______ ____
ROOT
ATOM      1  C1  UNL     1     151.767 160.028 169.029  0.00  0.00    +0.000 A 
ATOM      2  C2  UNL     1     150.912 160.715 168.155  0.00  0.00    +0.000 A 
ATOM      3  C9  UNL     1     151.759 161.288 167.218  0.00  0.00    +0.000 A 
ATOM      4  N3  UNL     1     151.497 162.059 166.147  0.00  0.00    +0.000 NA
ATOM      5  C10 UNL     1     152.465 162.526 165.349  0.00  0.00    +0.000 A 
ATOM      6  C11 UNL     1     152.233 163.319 164.243  0.00  0.00    +0.000 A 
ATOM      7  C12 UNL     1     153.235 163.793 163.431  0.00  0.00    +0.000 A 
ATOM      8  C13 UNL     1     154.536 163.454 163.745  0.00  0.00    +0.000 A 
ATOM      9  C14 UNL     1     154.794 162.665 164.843  0.00  0.00    +0.000 A 
ATOM     10  C15 UNL     1     153.767 162.192 165.657  0.00  0.00    +0.000 A 
ATOM     11  N4  UNL     1     154.037 161.421 166.727  0.00  0.00    +0.000 NA
ATOM     12  C16 UNL     1     153.073 160.951 167.529  0.00  0.00    +0.000 A 
ATOM     13  N5  UNL     1     153.046 160.185 168.633  0.00  0.00    +0.000 N 
ENDROOT
BRANCH   2  14
ATOM     14  C3  UNL     1     149.458 160.784 168.240  0.00  0.00    +0.000 C 
ATOM     15  O1  UNL     1     148.863 159.871 168.888  0.00  0.00    +0.000 OA
ATOM     16  N2  UNL     1     148.753 161.842 167.613  0.00  0.00    +0.000 N 
ATOM     17  H3  UNL     1     149.224 162.591 167.084  0.00  0.00    +0.000 HD
BRANCH  16  18
ATOM     18  C4  UNL     1     147.294 161.859 167.730  0.00  0.00    +0.000 C 
BRANCH  18  19
ATOM     19  C5  UNL     1     146.846 163.017 168.517  0.00  0.00    +0.000 A 
ATOM     20  O2  UNL     1     146.903 163.080 169.830  0.00  0.00    +0.000 OA
ATOM     21  C6  UNL     1     146.438 164.229 170.273  0.00  0.00    +0.000 A 
ATOM     22  C7  UNL     1     146.042 164.988 169.203  0.00  0.00    +0.000 A 
ATOM     23  C8  UNL     1     146.296 164.232 168.089  0.00  0.00    +0.000 A 
ENDBRANCH  18  19
ENDBRANCH  16  18
ENDBRANCH   2  14
BRANCH   1  24
ATOM     24  N1  UNL     1     151.308 159.294 170.148  0.00  0.00    +0.000 N 
ATOM     25  H1  UNL     1     151.826 158.458 170.457  0.00  0.00    +0.000 HD
ATOM     26  H2  UNL     1     150.461 159.581 170.663  0.00  0.00    +0.000 HD
ENDBRANCH   1  24
BRANCH  13  27
ATOM     27  C17 UNL     1     154.171 159.604 169.310  0.00  0.00    +0.000 C 
BRANCH  27  28
ATOM     28  C18 UNL     1     154.863 158.515 168.562  0.00  0.00    +0.000 C 
BRANCH  28  29
ATOM     29  N6  UNL     1     155.728 157.697 169.362  0.00  0.00    +0.000 NA
ATOM     30  C19 UNL     1     156.127 158.255 170.605  0.00  0.00    +0.000 C 
ATOM     31  C20 UNL     1     157.441 158.981 170.580  0.00  0.00    +0.000 C 
ATOM     32  C21 UNL     1     158.498 158.263 169.788  0.00  0.00    +0.000 C 
ATOM     33  C22 UNL     1     157.893 157.996 168.408  0.00  0.00    +0.000 C 
ATOM     34  C23 UNL     1     156.755 157.022 168.638  0.00  0.00    +0.000 C 
ENDBRANCH  28  29
ENDBRANCH  27  28
ENDBRANCH  13  27
TORSDOF 7
ENDMDL
MODEL 2
REMARK VINA RESULT:      -6.4      0.916      1.522
REMARK  Name = ./3D_structures\o69_MMV099714_3D.pdb
REMARK  7 active torsions:
REMARK  status: ('A' for Active; 'I' for Inactive)
REMARK    1  A    between atoms: N1_1  and  C1_2
REMARK    2  A    between atoms: C2_3  and  C3_4
REMARK    3  A    between atoms: N2_6  and  C4_7
REMARK    4  A    between atoms: C4_7  and  C5_8
REMARK    5  A    between atoms: N5_23  and  C17_24
REMARK    6  A    between atoms: C17_24  and  C18_25
REMARK    7  A    between atoms: C18_25  and  N6_26
REMARK                            x       y       z     vdW  Elec       q    Type
REMARK                         _______ _______ _______ _____ _____    ______ ____
ROOT
ATOM      1  C1  UNL     1     151.642 160.122 168.839  0.00  0.00    +0.000 A 
ATOM      2  C2  UNL     1     150.805 160.854 167.983  0.00  0.00    +0.000 A 
ATOM      3  C9  UNL     1     151.666 161.421 167.056  0.00  0.00    +0.000 A 
ATOM      4  N3  UNL     1     151.425 162.222 166.003  0.00  0.00    +0.000 NA
ATOM      5  C10 UNL     1     152.403 162.677 165.211  0.00  0.00    +0.000 A 
ATOM      6  C11 UNL     1     152.192 163.501 164.123  0.00  0.00    +0.000 A 
ATOM      7  C12 UNL     1     153.206 163.961 163.318  0.00  0.00    +0.000 A 
ATOM      8  C13 UNL     1     154.496 163.575 163.619  0.00  0.00    +0.000 A 
ATOM      9  C14 UNL     1     154.734 162.754 164.698  0.00  0.00    +0.000 A 
ATOM     10  C15 UNL     1     153.696 162.296 165.506  0.00  0.00    +0.000 A 
ATOM     11  N4  UNL     1     153.946 161.494 166.559  0.00  0.00    +0.000 NA
ATOM     12  C16 UNL     1     152.971 161.037 167.354  0.00  0.00    +0.000 A 
ATOM     13  N5  UNL     1     152.923 160.248 168.441  0.00  0.00    +0.000 N 
ENDROOT
BRANCH   2  14
ATOM     14  C3  UNL     1     149.354 160.966 168.076  0.00  0.00    +0.000 C 
ATOM     15  O1  UNL     1     148.740 160.094 168.761  0.00  0.00    +0.000 OA
ATOM     16  N2  UNL     1     148.673 162.020 167.416  0.00  0.00    +0.000 N 
ATOM     17  H3  UNL     1     149.161 162.737 166.857  0.00  0.00    +0.000 HD
BRANCH  16  18
ATOM     18  C4  UNL     1     147.216 162.082 167.543  0.00  0.00    +0.000 C 
BRANCH  18  19
ATOM     19  C5  UNL     1     146.816 163.169 168.447  0.00  0.00    +0.000 A 
ATOM     20  O2  UNL     1     146.887 163.098 169.759  0.00  0.00    +0.000 OA
ATOM     21  C6  UNL     1     146.465 164.212 170.320  0.00  0.00    +0.000 A 
ATOM     22  C7  UNL     1     146.086 165.087 169.336  0.00  0.00    +0.000 A 
ATOM     23  C8  UNL     1     146.304 164.438 168.149  0.00  0.00    +0.000 A 
ENDBRANCH  18  19
ENDBRANCH  16  18
ENDBRANCH   2  14
BRANCH   1  24
ATOM     24  N1  UNL     1     151.164 159.379 169.944  0.00  0.00    +0.000 N 
ATOM     25  H1  UNL     1     151.458 159.638 170.898  0.00  0.00    +0.000 HD
ATOM     26  H2  UNL     1     150.525 158.580 169.813  0.00  0.00    +0.000 HD
ENDBRANCH   1  24
BRANCH  13  27
ATOM     27  C17 UNL     1     154.032 159.618 169.101  0.00  0.00    +0.000 C 
BRANCH  27  28
ATOM     28  C18 UNL     1     154.567 158.406 168.415  0.00  0.00    +0.000 C 
BRANCH  28  29
ATOM     29  N6  UNL     1     155.741 158.636 167.624  0.00  0.00    +0.000 NA
ATOM     30  C19 UNL     1     155.618 158.336 166.241  0.00  0.00    +0.000 C 
ATOM     31  C20 UNL     1     156.071 156.958 165.851  0.00  0.00    +0.000 C 
ATOM     32  C21 UNL     1     157.347 156.542 166.525  0.00  0.00    +0.000 C 
ATOM     33  C22 UNL     1     157.123 156.735 168.026  0.00  0.00    +0.000 C 
ATOM     34  C23 UNL     1     156.965 158.228 168.231  0.00  0.00    +0.000 C 
ENDBRANCH  28  29
ENDBRANCH  27  28
ENDBRANCH  13  27
TORSDOF 7
ENDMDL
MODEL 3
REMARK VINA RESULT:      -6.4      5.662      8.688
REMARK  Name = ./3D_structures\o69_MMV099714_3D.pdb
REMARK  7 active torsions:
REMARK  status: ('A' for Active; 'I' for Inactive)
REMARK    1  A    between atoms: N1_1  and  C1_2
REMARK    2  A    between atoms: C2_3  and  C3_4
REMARK    3  A    between atoms: N2_6  and  C4_7
REMARK    4  A    between atoms: C4_7  and  C5_8
REMARK    5  A    between atoms: N5_23  and  C17_24
REMARK    6  A    between atoms: C17_24  and  C18_25
REMARK    7  A    between atoms: C18_25  and  N6_26
REMARK                            x       y       z     vdW  Elec       q    Type
REMARK                         _______ _______ _______ _____ _____    ______ ____
ROOT
ATOM      1  C1  UNL     1     148.288 164.832 169.173  0.00  0.00    +0.000 A 
ATOM      2  C2  UNL     1     149.474 165.538 169.427  0.00  0.00    +0.000 A 
ATOM      3  C9  UNL     1     150.204 165.426 168.254  0.00  0.00    +0.000 A 
ATOM      4  N3  UNL     1     151.416 165.904 167.921  0.00  0.00    +0.000 NA
ATOM      5  C10 UNL     1     151.965 165.687 166.719  0.00  0.00    +0.000 A 
ATOM      6  C11 UNL     1     153.206 166.161 166.343  0.00  0.00    +0.000 A 
ATOM      7  C12 UNL     1     153.758 165.932 165.106  0.00  0.00    +0.000 A 
ATOM      8  C13 UNL     1     153.028 165.190 164.200  0.00  0.00    +0.000 A 
ATOM      9  C14 UNL     1     151.787 164.706 164.549  0.00  0.00    +0.000 A 
ATOM     10  C15 UNL     1     151.241 164.946 165.808  0.00  0.00    +0.000 A 
ATOM     11  N4  UNL     1     150.026 164.465 166.134  0.00  0.00    +0.000 NA
ATOM     12  C16 UNL     1     149.474 164.678 167.334  0.00  0.00    +0.000 A 
ATOM     13  N5  UNL     1     148.315 164.333 167.922  0.00  0.00    +0.000 N 
ENDROOT
BRANCH   2  14
ATOM     14  C3  UNL     1     149.824 166.228 170.663  0.00  0.00    +0.000 C 
ATOM     15  O1  UNL     1     149.725 165.579 171.747  0.00  0.00    +0.000 OA
ATOM     16  N2  UNL     1     150.257 167.578 170.632  0.00  0.00    +0.000 N 
ATOM     17  H3  UNL     1     150.343 168.117 169.757  0.00  0.00    +0.000 HD
BRANCH  16  18
ATOM     18  C4  UNL     1     150.593 168.221 171.903  0.00  0.00    +0.000 C 
BRANCH  18  19
ATOM     19  C5  UNL     1     150.158 169.625 171.909  0.00  0.00    +0.000 A 
ATOM     20  O2  UNL     1     149.591 170.214 172.940  0.00  0.00    +0.000 OA
ATOM     21  C6  UNL     1     149.305 171.471 172.672  0.00  0.00    +0.000 A 
ATOM     22  C7  UNL     1     149.697 171.751 171.389  0.00  0.00    +0.000 A 
ATOM     23  C8  UNL     1     150.238 170.592 170.898  0.00  0.00    +0.000 A 
ENDBRANCH  18  19
ENDBRANCH  16  18
ENDBRANCH   2  14
BRANCH   1  24
ATOM     24  N1  UNL     1     147.249 164.692 170.122  0.00  0.00    +0.000 N 
ATOM     25  H1  UNL     1     146.479 165.378 170.140  0.00  0.00    +0.000 HD
ATOM     26  H2  UNL     1     147.246 163.915 170.800  0.00  0.00    +0.000 HD
ENDBRANCH   1  24
BRANCH  13  27
ATOM     27  C17 UNL     1     147.250 163.562 167.344  0.00  0.00    +0.000 C 
BRANCH  27  28
ATOM     28  C18 UNL     1     146.373 164.308 166.396  0.00  0.00    +0.000 C 
BRANCH  28  29
ATOM     29  N6  UNL     1     145.118 164.730 166.948  0.00  0.00    +0.000 NA
ATOM     30  C19 UNL     1     144.538 163.849 167.899  0.00  0.00    +0.000 C 
ATOM     31  C20 UNL     1     143.545 162.874 167.333  0.00  0.00    +0.000 C 
ATOM     32  C21 UNL     1     142.618 163.491 166.326  0.00  0.00    +0.000 C 
ATOM     33  C22 UNL     1     143.508 164.168 165.281  0.00  0.00    +0.000 C 
ATOM     34  C23 UNL     1     144.209 165.299 166.008  0.00  0.00    +0.000 C 
ENDBRANCH  28  29
ENDBRANCH  27  28
ENDBRANCH  13  27
TORSDOF 7
ENDMDL
MODEL 4
REMARK VINA RESULT:      -6.3      7.873     11.016
REMARK  Name = ./3D_structures\o69_MMV099714_3D.pdb
REMARK  7 active torsions:
REMARK  status: ('A' for Active; 'I' for Inactive)
REMARK    1  A    between atoms: N1_1  and  C1_2
REMARK    2  A    between atoms: C2_3  and  C3_4
REMARK    3  A    between atoms: N2_6  and  C4_7
REMARK    4  A    between atoms: C4_7  and  C5_8
REMARK    5  A    between atoms: N5_23  and  C17_24
REMARK    6  A    between atoms: C17_24  and  C18_25
REMARK    7  A    between atoms: C18_25  and  N6_26
REMARK                            x       y       z     vdW  Elec       q    Type
REMARK                         _______ _______ _______ _____ _____    ______ ____
ROOT
ATOM      1  C1  UNL     1     160.620 157.724 165.428  0.00  0.00    +0.000 A 
ATOM      2  C2  UNL     1     159.414 157.010 165.508  0.00  0.00    +0.000 A 
ATOM      3  C9  UNL     1     158.890 157.349 166.746  0.00  0.00    +0.000 A 
ATOM      4  N3  UNL     1     157.755 156.966 167.358  0.00  0.00    +0.000 NA
ATOM      5  C10 UNL     1     157.415 157.407 168.575  0.00  0.00    +0.000 A 
ATOM      6  C11 UNL     1     156.260 157.035 169.233  0.00  0.00    +0.000 A 
ATOM      7  C12 UNL     1     155.922 157.496 170.483  0.00  0.00    +0.000 A 
ATOM      8  C13 UNL     1     156.786 158.375 171.104  0.00  0.00    +0.000 A 
ATOM      9  C14 UNL     1     157.945 158.762 170.469  0.00  0.00    +0.000 A 
ATOM     10  C15 UNL     1     158.275 158.286 169.202  0.00  0.00    +0.000 A 
ATOM     11  N4  UNL     1     159.412 158.675 168.596  0.00  0.00    +0.000 NA
ATOM     12  C16 UNL     1     159.757 158.235 167.379  0.00  0.00    +0.000 A 
ATOM     13  N5  UNL     1     160.798 158.444 166.553  0.00  0.00    +0.000 N 
ENDROOT
BRANCH   2  14
ATOM     14  C3  UNL     1     158.864 156.121 164.491  0.00  0.00    +0.000 C 
ATOM     15  O1  UNL     1     158.874 156.526 163.290  0.00  0.00    +0.000 OA
ATOM     16  N2  UNL     1     158.341 154.854 164.854  0.00  0.00    +0.000 N 
ATOM     17  H3  UNL     1     158.328 154.513 165.827  0.00  0.00    +0.000 HD
BRANCH  16  18
ATOM     18  C4  UNL     1     157.800 154.005 163.792  0.00  0.00    +0.000 C 
BRANCH  18  19
ATOM     19  C5  UNL     1     157.870 152.587 164.171  0.00  0.00    +0.000 A 
ATOM     20  O2  UNL     1     158.877 152.049 164.826  0.00  0.00    +0.000 OA
ATOM     21  C6  UNL     1     158.679 150.764 165.033  0.00  0.00    +0.000 A 
ATOM     22  C7  UNL     1     157.473 150.408 164.487  0.00  0.00    +0.000 A 
ATOM     23  C8  UNL     1     156.954 151.552 163.940  0.00  0.00    +0.000 A 
ENDBRANCH  18  19
ENDBRANCH  16  18
ENDBRANCH   2  14
BRANCH   1  24
ATOM     24  N1  UNL     1     161.486 157.663 164.312  0.00  0.00    +0.000 N 
ATOM     25  H1  UNL     1     161.095 157.732 163.360  0.00  0.00    +0.000 HD
ATOM     26  H2  UNL     1     162.504 157.550 164.432  0.00  0.00    +0.000 HD
ENDBRANCH   1  24
BRANCH  13  27
ATOM     27  C17 UNL     1     161.932 159.292 166.791  0.00  0.00    +0.000 C 
BRANCH  27  28
ATOM     28  C18 UNL     1     163.053 158.651 167.539  0.00  0.00    +0.000 C 
BRANCH  28  29
ATOM     29  N6  UNL     1     164.315 159.318 167.411  0.00  0.00    +0.000 NA
ATOM     30  C19 UNL     1     165.398 158.726 168.113  0.00  0.00    +0.000 C 
ATOM     31  C20 UNL     1     165.650 159.293 169.481  0.00  0.00    +0.000 C 
ATOM     32  C21 UNL     1     165.550 160.792 169.527  0.00  0.00    +0.000 C 
ATOM     33  C22 UNL     1     164.187 161.150 168.933  0.00  0.00    +0.000 C 
ATOM     34  C23 UNL     1     164.252 160.741 167.474  0.00  0.00    +0.000 C 
ENDBRANCH  28  29
ENDBRANCH  27  28
ENDBRANCH  13  27
TORSDOF 7
ENDMDL
MODEL 5
REMARK VINA RESULT:      -6.2      2.627      5.029
REMARK  Name = ./3D_structures\o69_MMV099714_3D.pdb
REMARK  7 active torsions:
REMARK  status: ('A' for Active; 'I' for Inactive)
REMARK    1  A    between atoms: N1_1  and  C1_2
REMARK    2  A    between atoms: C2_3  and  C3_4
REMARK    3  A    between atoms: N2_6  and  C4_7
REMARK    4  A    between atoms: C4_7  and  C5_8
REMARK    5  A    between atoms: N5_23  and  C17_24
REMARK    6  A    between atoms: C17_24  and  C18_25
REMARK    7  A    between atoms: C18_25  and  N6_26
REMARK                            x       y       z     vdW  Elec       q    Type
REMARK                         _______ _______ _______ _____ _____    ______ ____
ROOT
ATOM      1  C1  UNL     1     152.243 160.461 169.085  0.00  0.00    +0.000 A 
ATOM      2  C2  UNL     1     150.862 160.453 168.837  0.00  0.00    +0.000 A 
ATOM      3  C9  UNL     1     150.415 159.264 169.393  0.00  0.00    +0.000 A 
ATOM      4  N3  UNL     1     149.184 158.727 169.454  0.00  0.00    +0.000 NA
ATOM      5  C10 UNL     1     148.946 157.548 170.042  0.00  0.00    +0.000 A 
ATOM      6  C11 UNL     1     147.696 156.967 170.123  0.00  0.00    +0.000 A 
ATOM      7  C12 UNL     1     147.465 155.756 170.729  0.00  0.00    +0.000 A 
ATOM      8  C13 UNL     1     148.543 155.094 171.282  0.00  0.00    +0.000 A 
ATOM      9  C14 UNL     1     149.800 155.651 171.214  0.00  0.00    +0.000 A 
ATOM     10  C15 UNL     1     150.018 156.880 170.596  0.00  0.00    +0.000 A 
ATOM     11  N4  UNL     1     151.254 157.411 170.539  0.00  0.00    +0.000 NA
ATOM     12  C16 UNL     1     151.497 158.590 169.952  0.00  0.00    +0.000 A 
ATOM     13  N5  UNL     1     152.593 159.342 169.749  0.00  0.00    +0.000 N 
ENDROOT
BRANCH   2  14
ATOM     14  C3  UNL     1     150.098 161.487 168.148  0.00  0.00    +0.000 C 
ATOM     15  O1  UNL     1     150.740 162.304 167.421  0.00  0.00    +0.000 OA
ATOM     16  N2  UNL     1     148.691 161.559 168.300  0.00  0.00    +0.000 N 
ATOM     17  H3  UNL     1     148.158 160.900 168.887  0.00  0.00    +0.000 HD
BRANCH  16  18
ATOM     18  C4  UNL     1     147.977 162.619 167.586  0.00  0.00    +0.000 C 
BRANCH  18  19
ATOM     19  C5  UNL     1     147.491 163.643 168.522  0.00  0.00    +0.000 A 
ATOM     20  O2  UNL     1     146.321 164.236 168.421  0.00  0.00    +0.000 OA
ATOM     21  C6  UNL     1     146.144 165.109 169.391  0.00  0.00    +0.000 A 
ATOM     22  C7  UNL     1     147.255 165.111 170.193  0.00  0.00    +0.000 A 
ATOM     23  C8  UNL     1     148.112 164.189 169.653  0.00  0.00    +0.000 A 
ENDBRANCH  18  19
ENDBRANCH  16  18
ENDBRANCH   2  14
BRANCH   1  24
ATOM     24  N1  UNL     1     153.099 161.510 168.677  0.00  0.00    +0.000 N 
ATOM     25  H1  UNL     1     153.097 162.402 169.196  0.00  0.00    +0.000 HD
ATOM     26  H2  UNL     1     153.727 161.402 167.866  0.00  0.00    +0.000 HD
ENDBRANCH   1  24
BRANCH  13  27
ATOM     27  C17 UNL     1     153.935 159.043 170.162  0.00  0.00    +0.000 C 
BRANCH  27  28
ATOM     28  C18 UNL     1     154.781 158.385 169.124  0.00  0.00    +0.000 C 
BRANCH  28  29
ATOM     29  N6  UNL     1     155.802 157.522 169.644  0.00  0.00    +0.000 NA
ATOM     30  C19 UNL     1     156.296 157.859 170.931  0.00  0.00    +0.000 C 
ATOM     31  C20 UNL     1     157.532 158.713 170.929  0.00  0.00    +0.000 C 
ATOM     32  C21 UNL     1     158.544 158.286 169.904  0.00  0.00    +0.000 C 
ATOM     33  C22 UNL     1     157.805 158.237 168.565  0.00  0.00    +0.000 C 
ATOM     34  C23 UNL     1     156.789 157.120 168.696  0.00  0.00    +0.000 C 
ENDBRANCH  28  29
ENDBRANCH  27  28
ENDBRANCH  13  27
TORSDOF 7
ENDMDL
MODEL 6
REMARK VINA RESULT:      -6.1      1.874      2.280
REMARK  Name = ./3D_structures\o69_MMV099714_3D.pdb
REMARK  7 active torsions:
REMARK  status: ('A' for Active; 'I' for Inactive)
REMARK    1  A    between atoms: N1_1  and  C1_2
REMARK    2  A    between atoms: C2_3  and  C3_4
REMARK    3  A    between atoms: N2_6  and  C4_7
REMARK    4  A    between atoms: C4_7  and  C5_8
REMARK    5  A    between atoms: N5_23  and  C17_24
REMARK    6  A    between atoms: C17_24  and  C18_25
REMARK    7  A    between atoms: C18_25  and  N6_26
REMARK                            x       y       z     vdW  Elec       q    Type
REMARK                         _______ _______ _______ _____ _____    ______ ____
ROOT
ATOM      1  C1  UNL     1     152.246 160.428 168.604  0.00  0.00    +0.000 A 
ATOM      2  C2  UNL     1     151.090 161.044 168.101  0.00  0.00    +0.000 A 
ATOM      3  C9  UNL     1     151.559 162.138 167.391  0.00  0.00    +0.000 A 
ATOM      4  N3  UNL     1     150.904 163.087 166.699  0.00  0.00    +0.000 NA
ATOM      5  C10 UNL     1     151.541 164.082 166.070  0.00  0.00    +0.000 A 
ATOM      6  C11 UNL     1     150.902 165.072 165.351  0.00  0.00    +0.000 A 
ATOM      7  C12 UNL     1     151.567 166.089 164.710  0.00  0.00    +0.000 A 
ATOM      8  C13 UNL     1     152.945 166.113 164.793  0.00  0.00    +0.000 A 
ATOM      9  C14 UNL     1     153.607 165.137 165.504  0.00  0.00    +0.000 A 
ATOM     10  C15 UNL     1     152.918 164.113 166.149  0.00  0.00    +0.000 A 
ATOM     11  N4  UNL     1     153.581 163.166 166.840  0.00  0.00    +0.000 NA
ATOM     12  C16 UNL     1     152.948 162.169 167.471  0.00  0.00    +0.000 A 
ATOM     13  N5  UNL     1     153.335 161.118 168.214  0.00  0.00    +0.000 N 
ENDROOT
BRANCH   2  14
ATOM     14  C3  UNL     1     149.715 160.599 168.298  0.00  0.00    +0.000 C 
ATOM     15  O1  UNL     1     149.449 159.966 169.364  0.00  0.00    +0.000 OA
ATOM     16  N2  UNL     1     148.726 160.875 167.320  0.00  0.00    +0.000 N 
ATOM     17  H3  UNL     1     148.929 161.390 166.450  0.00  0.00    +0.000 HD
BRANCH  16  18
ATOM     18  C4  UNL     1     147.363 160.402 167.570  0.00  0.00    +0.000 C 
BRANCH  18  19
ATOM     19  C5  UNL     1     146.418 161.527 167.606  0.00  0.00    +0.000 A 
ATOM     20  O2  UNL     1     146.312 162.429 166.653  0.00  0.00    +0.000 OA
ATOM     21  C6  UNL     1     145.388 163.322 166.942  0.00  0.00    +0.000 A 
ATOM     22  C7  UNL     1     144.839 163.011 168.159  0.00  0.00    +0.000 A 
ATOM     23  C8  UNL     1     145.482 161.880 168.586  0.00  0.00    +0.000 A 
ENDBRANCH  18  19
ENDBRANCH  16  18
ENDBRANCH   2  14
BRANCH   1  24
ATOM     24  N1  UNL     1     152.219 159.259 169.400  0.00  0.00    +0.000 N 
ATOM     25  H1  UNL     1     151.573 158.493 169.158  0.00  0.00    +0.000 HD
ATOM     26  H2  UNL     1     152.836 159.158 170.221  0.00  0.00    +0.000 HD
ENDBRANCH   1  24
BRANCH  13  27
ATOM     27  C17 UNL     1     154.681 160.750 168.556  0.00  0.00    +0.000 C 
BRANCH  27  28
ATOM     28  C18 UNL     1     155.396 159.944 167.524  0.00  0.00    +0.000 C 
BRANCH  28  29
ATOM     29  N6  UNL     1     155.055 158.552 167.511  0.00  0.00    +0.000 NA
ATOM     30  C19 UNL     1     155.757 157.738 168.438  0.00  0.00    +0.000 C 
ATOM     31  C20 UNL     1     156.984 157.067 167.888  0.00  0.00    +0.000 C 
ATOM     32  C21 UNL     1     156.782 156.506 166.509  0.00  0.00    +0.000 C 
ATOM     33  C22 UNL     1     156.249 157.655 165.651  0.00  0.00    +0.000 C 
ATOM     34  C23 UNL     1     154.880 157.988 166.213  0.00  0.00    +0.000 C 
ENDBRANCH  28  29
ENDBRANCH  27  28
ENDBRANCH  13  27
TORSDOF 7
ENDMDL
MODEL 7
REMARK VINA RESULT:      -6.1      2.255      8.092
REMARK  Name = ./3D_structures\o69_MMV099714_3D.pdb
REMARK  7 active torsions:
REMARK  status: ('A' for Active; 'I' for Inactive)
REMARK    1  A    between atoms: N1_1  and  C1_2
REMARK    2  A    between atoms: C2_3  and  C3_4
REMARK    3  A    between atoms: N2_6  and  C4_7
REMARK    4  A    between atoms: C4_7  and  C5_8
REMARK    5  A    between atoms: N5_23  and  C17_24
REMARK    6  A    between atoms: C17_24  and  C18_25
REMARK    7  A    between atoms: C18_25  and  N6_26
REMARK                            x       y       z     vdW  Elec       q    Type
REMARK                         _______ _______ _______ _____ _____    ______ ____
ROOT
ATOM      1  C1  UNL     1     149.594 163.346 168.481  0.00  0.00    +0.000 A 
ATOM      2  C2  UNL     1     150.621 162.402 168.332  0.00  0.00    +0.000 A 
ATOM      3  C9  UNL     1     151.366 162.864 167.258  0.00  0.00    +0.000 A 
ATOM      4  N3  UNL     1     152.466 162.363 166.668  0.00  0.00    +0.000 NA
ATOM      5  C10 UNL     1     153.052 162.962 165.624  0.00  0.00    +0.000 A 
ATOM      6  C11 UNL     1     154.180 162.477 164.993  0.00  0.00    +0.000 A 
ATOM      7  C12 UNL     1     154.773 163.100 163.921  0.00  0.00    +0.000 A 
ATOM      8  C13 UNL     1     154.204 164.270 163.459  0.00  0.00    +0.000 A 
ATOM      9  C14 UNL     1     153.078 164.775 164.070  0.00  0.00    +0.000 A 
ATOM     10  C15 UNL     1     152.489 164.131 165.156  0.00  0.00    +0.000 A 
ATOM     11  N4  UNL     1     151.388 164.638 165.742  0.00  0.00    +0.000 NA
ATOM     12  C16 UNL     1     150.798 164.044 166.786  0.00  0.00    +0.000 A 
ATOM     13  N5  UNL     1     149.724 164.311 167.549  0.00  0.00    +0.000 N 
ENDROOT
BRANCH   2  14
ATOM     14  C3  UNL     1     150.830 161.212 169.150  0.00  0.00    +0.000 C 
ATOM     15  O1  UNL     1     149.803 160.609 169.584  0.00  0.00    +0.000 OA
ATOM     16  N2  UNL     1     152.144 160.763 169.438  0.00  0.00    +0.000 N 
ATOM     17  H3  UNL     1     152.988 161.243 169.090  0.00  0.00    +0.000 HD
BRANCH  16  18
ATOM     18  C4  UNL     1     152.294 159.564 170.265  0.00  0.00    +0.000 C 
BRANCH  18  19
ATOM     19  C5  UNL     1     153.466 158.783 169.845  0.00  0.00    +0.000 A 
ATOM     20  O2  UNL     1     154.645 158.858 170.424  0.00  0.00    +0.000 OA
ATOM     21  C6  UNL     1     155.511 158.051 169.848  0.00  0.00    +0.000 A 
ATOM     22  C7  UNL     1     154.887 157.393 168.820  0.00  0.00    +0.000 A 
ATOM     23  C8  UNL     1     153.595 157.848 168.810  0.00  0.00    +0.000 A 
ENDBRANCH  18  19
ENDBRANCH  16  18
ENDBRANCH   2  14
BRANCH   1  24
ATOM     24  N1  UNL     1     148.593 163.254 169.476  0.00  0.00    +0.000 N 
ATOM     25  H1  UNL     1     148.754 162.666 170.308  0.00  0.00    +0.000 HD
ATOM     26  H2  UNL     1     147.701 163.764 169.384  0.00  0.00    +0.000 HD
ENDBRANCH   1  24
BRANCH  13  27
ATOM     27  C17 UNL     1     148.836 165.433 167.429  0.00  0.00    +0.000 C 
BRANCH  27  28
ATOM     28  C18 UNL     1     147.806 165.309 166.356  0.00  0.00    +0.000 C 
BRANCH  28  29
ATOM     29  N6  UNL     1     146.506 165.792 166.718  0.00  0.00    +0.000 NA
ATOM     30  C19 UNL     1     146.005 165.336 167.966  0.00  0.00    +0.000 C 
ATOM     31  C20 UNL     1     145.129 164.118 167.888  0.00  0.00    +0.000 C 
ATOM     32  C21 UNL     1     144.158 164.161 166.742  0.00  0.00    +0.000 C 
ATOM     33  C22 UNL     1     144.989 164.426 165.485  0.00  0.00    +0.000 C 
ATOM     34  C23 UNL     1     145.558 165.821 165.653  0.00  0.00    +0.000 C 
ENDBRANCH  28  29
ENDBRANCH  27  28
ENDBRANCH  13  27
TORSDOF 7
ENDMDL
MODEL 8
REMARK VINA RESULT:      -6.1      6.996     11.260
REMARK  Name = ./3D_structures\o69_MMV099714_3D.pdb
REMARK  7 active torsions:
REMARK  status: ('A' for Active; 'I' for Inactive)
REMARK    1  A    between atoms: N1_1  and  C1_2
REMARK    2  A    between atoms: C2_3  and  C3_4
REMARK    3  A    between atoms: N2_6  and  C4_7
REMARK    4  A    between atoms: C4_7  and  C5_8
REMARK    5  A    between atoms: N5_23  and  C17_24
REMARK    6  A    between atoms: C17_24  and  C18_25
REMARK    7  A    between atoms: C18_25  and  N6_26
REMARK                            x       y       z     vdW  Elec       q    Type
REMARK                         _______ _______ _______ _____ _____    ______ ____
ROOT
ATOM      1  C1  UNL     1     157.772 156.253 165.056  0.00  0.00    +0.000 A 
ATOM      2  C2  UNL     1     158.969 155.607 164.711  0.00  0.00    +0.000 A 
ATOM      3  C9  UNL     1     159.962 156.375 165.300  0.00  0.00    +0.000 A 
ATOM      4  N3  UNL     1     161.300 156.235 165.304  0.00  0.00    +0.000 NA
ATOM      5  C10 UNL     1     162.106 157.094 165.938  0.00  0.00    +0.000 A 
ATOM      6  C11 UNL     1     163.482 156.981 165.963  0.00  0.00    +0.000 A 
ATOM      7  C12 UNL     1     164.300 157.870 166.618  0.00  0.00    +0.000 A 
ATOM      8  C13 UNL     1     163.708 158.925 167.282  0.00  0.00    +0.000 A 
ATOM      9  C14 UNL     1     162.338 159.060 167.273  0.00  0.00    +0.000 A 
ATOM     10  C15 UNL     1     161.522 158.151 166.604  0.00  0.00    +0.000 A 
ATOM     11  N4  UNL     1     160.183 158.298 166.604  0.00  0.00    +0.000 NA
ATOM     12  C16 UNL     1     159.372 157.442 165.971  0.00  0.00    +0.000 A 
ATOM     13  N5  UNL     1     158.042 157.340 165.805  0.00  0.00    +0.000 N 
ENDROOT
BRANCH   2  14
ATOM     14  C3  UNL     1     159.100 154.393 163.912  0.00  0.00    +0.000 C 
ATOM     15  O1  UNL     1     158.434 154.324 162.836  0.00  0.00    +0.000 OA
ATOM     16  N2  UNL     1     159.947 153.341 164.343  0.00  0.00    +0.000 N 
ATOM     17  H3  UNL     1     160.495 153.386 165.215  0.00  0.00    +0.000 HD
BRANCH  16  18
ATOM     18  C4  UNL     1     160.038 152.146 163.503  0.00  0.00    +0.000 C 
BRANCH  18  19
ATOM     19  C5  UNL     1     159.033 151.150 163.900  0.00  0.00    +0.000 A 
ATOM     20  O2  UNL     1     158.022 150.783 163.142  0.00  0.00    +0.000 OA
ATOM     21  C6  UNL     1     157.279 149.878 163.744  0.00  0.00    +0.000 A 
ATOM     22  C7  UNL     1     157.814 149.616 164.979  0.00  0.00    +0.000 A 
ATOM     23  C8  UNL     1     158.922 150.414 165.087  0.00  0.00    +0.000 A 
ENDBRANCH  18  19
ENDBRANCH  16  18
ENDBRANCH   2  14
BRANCH   1  24
ATOM     24  N1  UNL     1     156.497 155.794 164.651  0.00  0.00    +0.000 N 
ATOM     25  H1  UNL     1     156.377 154.810 164.366  0.00  0.00    +0.000 HD
ATOM     26  H2  UNL     1     155.682 156.427 164.634  0.00  0.00    +0.000 HD
ENDBRANCH   1  24
BRANCH  13  27
ATOM     27  C17 UNL     1     157.036 158.222 166.328  0.00  0.00    +0.000 C 
BRANCH  27  28
ATOM     28  C18 UNL     1     156.467 157.818 167.647  0.00  0.00    +0.000 C 
BRANCH  28  29
ATOM     29  N6  UNL     1     156.464 158.853 168.639  0.00  0.00    +0.000 NA
ATOM     30  C19 UNL     1     157.740 159.353 169.010  0.00  0.00    +0.000 C 
ATOM     31  C20 UNL     1     158.347 158.701 170.220  0.00  0.00    +0.000 C 
ATOM     32  C21 UNL     1     157.358 158.474 171.328  0.00  0.00    +0.000 C 
ATOM     33  C22 UNL     1     156.189 157.703 170.710  0.00  0.00    +0.000 C 
ATOM     34  C23 UNL     1     155.550 158.651 169.715  0.00  0.00    +0.000 C 
ENDBRANCH  28  29
ENDBRANCH  27  28
ENDBRANCH  13  27
TORSDOF 7
ENDMDL
MODEL 9
REMARK VINA RESULT:      -6.1      6.404     10.353
REMARK  Name = ./3D_structures\o69_MMV099714_3D.pdb
REMARK  7 active torsions:
REMARK  status: ('A' for Active; 'I' for Inactive)
REMARK    1  A    between atoms: N1_1  and  C1_2
REMARK    2  A    between atoms: C2_3  and  C3_4
REMARK    3  A    between atoms: N2_6  and  C4_7
REMARK    4  A    between atoms: C4_7  and  C5_8
REMARK    5  A    between atoms: N5_23  and  C17_24
REMARK    6  A    between atoms: C17_24  and  C18_25
REMARK    7  A    between atoms: C18_25  and  N6_26
REMARK                            x       y       z     vdW  Elec       q    Type
REMARK                         _______ _______ _______ _____ _____    ______ ____
ROOT
ATOM      1  C1  UNL     1     157.599 158.282 166.802  0.00  0.00    +0.000 A 
ATOM      2  C2  UNL     1     158.224 157.290 166.031  0.00  0.00    +0.000 A 
ATOM      3  C9  UNL     1     159.579 157.470 166.265  0.00  0.00    +0.000 A 
ATOM      4  N3  UNL     1     160.651 156.809 165.792  0.00  0.00    +0.000 NA
ATOM      5  C10 UNL     1     161.902 157.136 166.138  0.00  0.00    +0.000 A 
ATOM      6  C11 UNL     1     163.025 156.481 165.672  0.00  0.00    +0.000 A 
ATOM      7  C12 UNL     1     164.304 156.826 166.035  0.00  0.00    +0.000 A 
ATOM      8  C13 UNL     1     164.466 157.882 166.909  0.00  0.00    +0.000 A 
ATOM      9  C14 UNL     1     163.363 158.552 167.388  0.00  0.00    +0.000 A 
ATOM     10  C15 UNL     1     162.071 158.191 167.011  0.00  0.00    +0.000 A 
ATOM     11  N4  UNL     1     161.003 158.857 167.488  0.00  0.00    +0.000 NA
ATOM     12  C16 UNL     1     159.750 158.535 167.145  0.00  0.00    +0.000 A 
ATOM     13  N5  UNL     1     158.529 159.006 167.454  0.00  0.00    +0.000 N 
ENDROOT
BRANCH   2  14
ATOM     14  C3  UNL     1     157.562 156.302 165.186  0.00  0.00    +0.000 C 
ATOM     15  O1  UNL     1     156.354 156.021 165.448  0.00  0.00    +0.000 OA
ATOM     16  N2  UNL     1     158.263 155.690 164.117  0.00  0.00    +0.000 N 
ATOM     17  H3  UNL     1     159.245 155.911 163.893  0.00  0.00    +0.000 HD
BRANCH  16  18
ATOM     18  C4  UNL     1     157.549 154.704 163.304  0.00  0.00    +0.000 C 
BRANCH  18  19
ATOM     19  C5  UNL     1     157.781 153.343 163.810  0.00  0.00    +0.000 A 
ATOM     20  O2  UNL     1     156.928 152.351 163.668  0.00  0.00    +0.000 OA
ATOM     21  C6  UNL     1     157.389 151.245 164.215  0.00  0.00    +0.000 A 
ATOM     22  C7  UNL     1     158.621 151.500 164.760  0.00  0.00    +0.000 A 
ATOM     23  C8  UNL     1     158.877 152.823 164.510  0.00  0.00    +0.000 A 
ENDBRANCH  18  19
ENDBRANCH  16  18
ENDBRANCH   2  14
BRANCH   1  24
ATOM     24  N1  UNL     1     156.196 158.457 166.852  0.00  0.00    +0.000 N 
ATOM     25  H1  UNL     1     155.649 158.443 165.977  0.00  0.00    +0.000 HD
ATOM     26  H2  UNL     1     155.708 158.598 167.749  0.00  0.00    +0.000 HD
ENDBRANCH   1  24
BRANCH  13  27
ATOM     27  C17 UNL     1     158.222 160.099 168.334  0.00  0.00    +0.000 C 
BRANCH  27  28
ATOM     28  C18 UNL     1     157.900 159.707 169.737  0.00  0.00    +0.000 C 
BRANCH  28  29
ATOM     29  N6  UNL     1     156.521 159.392 169.968  0.00  0.00    +0.000 NA
ATOM     30  C19 UNL     1     155.648 160.506 170.091  0.00  0.00    +0.000 C 
ATOM     31  C20 UNL     1     155.401 160.963 171.500  0.00  0.00    +0.000 C 
ATOM     32  C21 UNL     1     155.192 159.828 172.461  0.00  0.00    +0.000 C 
ATOM     33  C22 UNL     1     156.396 158.898 172.298  0.00  0.00    +0.000 C 
ATOM     34  C23 UNL     1     156.293 158.333 170.895  0.00  0.00    +0.000 C 
ENDBRANCH  28  29
ENDBRANCH  27  28
ENDBRANCH  13  27
TORSDOF 7
ENDMDL
