MODEL 1
REMARK VINA RESULT:      -6.3      0.000      0.000
REMARK  Name = ./3D_structures\o6_MMV002612_3D.pdb
REMARK  1 active torsions:
REMARK  status: ('A' for Active; 'I' for Inactive)
REMARK    1  A    between atoms: C4_5  and  N1_6
REMARK                            x       y       z     vdW  Elec       q    Type
REMARK                         _______ _______ _______ _____ _____    ______ ____
ROOT
ATOM      1  N1  UNL     1     147.113 165.262 167.063  0.00  0.00    +0.000 N 
ATOM      2  C5  UNL     1     148.524 165.246 166.912  0.00  0.00    +0.000 C 
ATOM      3  O2  UNL     1     149.194 165.257 165.830  0.00  0.00    +0.000 OA
ATOM      4  C6  UNL     1     149.171 165.213 168.221  0.00  0.00    +0.000 A 
ATOM      5  C7  UNL     1     150.495 165.187 168.621  0.00  0.00    +0.000 A 
ATOM      6  C8  UNL     1     150.772 165.159 169.968  0.00  0.00    +0.000 A 
ATOM      7  C9  UNL     1     149.775 165.154 170.936  0.00  0.00    +0.000 A 
ATOM      8  C10 UNL     1     148.477 165.179 170.481  0.00  0.00    +0.000 A 
ATOM      9  C11 UNL     1     148.135 165.209 169.146  0.00  0.00    +0.000 A 
ATOM     10  C12 UNL     1     146.856 165.239 168.442  0.00  0.00    +0.000 C 
ATOM     11  O3  UNL     1     145.715 165.245 168.969  0.00  0.00    +0.000 OA
ENDROOT
BRANCH   1  16
ATOM     12  O1  UNL     1     142.143 166.113 165.363  0.00  0.00    +0.000 OA
ATOM     13  C1  UNL     1     143.379 165.898 165.372  0.00  0.00    +0.000 C 
ATOM     14  C2  UNL     1     143.971 164.544 165.203  0.00  0.00    +0.000 C 
ATOM     15  C3  UNL     1     145.009 164.371 166.312  0.00  0.00    +0.000 C 
ATOM     16  C4  UNL     1     146.157 165.296 165.965  0.00  0.00    +0.000 C 
ATOM     17  C13 UNL     1     145.689 166.676 165.696  0.00  0.00    +0.000 C 
ATOM     18  O4  UNL     1     146.553 167.582 165.598  0.00  0.00    +0.000 OA
ATOM     19  N2  UNL     1     144.305 166.972 165.551  0.00  0.00    +0.000 N 
ATOM     20  H10 UNL     1     143.976 167.964 165.574  0.00  0.00    +0.000 HD
ENDBRANCH   1  16
TORSDOF 1
ENDMDL
MODEL 2
REMARK VINA RESULT:      -6.1     11.384     13.162
REMARK  Name = ./3D_structures\o6_MMV002612_3D.pdb
REMARK  1 active torsions:
REMARK  status: ('A' for Active; 'I' for Inactive)
REMARK    1  A    between atoms: C4_5  and  N1_6
REMARK                            x       y       z     vdW  Elec       q    Type
REMARK                         _______ _______ _______ _____ _____    ______ ____
ROOT
ATOM      1  N1  UNL     1     157.160 158.868 169.793  0.00  0.00    +0.000 N 
ATOM      2  C5  UNL     1     155.956 158.780 169.046  0.00  0.00    +0.000 C 
ATOM      3  O2  UNL     1     154.810 159.238 169.355  0.00  0.00    +0.000 OA
ATOM      4  C6  UNL     1     156.189 158.057 167.798  0.00  0.00    +0.000 A 
ATOM      5  C7  UNL     1     155.367 157.706 166.741  0.00  0.00    +0.000 A 
ATOM      6  C8  UNL     1     155.914 157.008 165.690  0.00  0.00    +0.000 A 
ATOM      7  C9  UNL     1     157.255 156.644 165.652  0.00  0.00    +0.000 A 
ATOM      8  C10 UNL     1     158.024 157.018 166.729  0.00  0.00    +0.000 A 
ATOM      9  C11 UNL     1     157.535 157.719 167.811  0.00  0.00    +0.000 A 
ATOM     10  C12 UNL     1     158.148 158.215 169.040  0.00  0.00    +0.000 C 
ATOM     11  O3  UNL     1     159.352 158.086 169.378  0.00  0.00    +0.000 OA
ENDROOT
BRANCH   1  16
ATOM     12  O1  UNL     1     154.960 161.692 173.730  0.00  0.00    +0.000 OA
ATOM     13  C1  UNL     1     155.772 161.001 173.068  0.00  0.00    +0.000 C 
ATOM     14  C2  UNL     1     156.921 161.584 172.326  0.00  0.00    +0.000 C 
ATOM     15  C3  UNL     1     156.899 160.974 170.924  0.00  0.00    +0.000 C 
ATOM     16  C4  UNL     1     157.294 159.522 171.087  0.00  0.00    +0.000 C 
ATOM     17  C13 UNL     1     156.480 158.844 172.124  0.00  0.00    +0.000 C 
ATOM     18  O4  UNL     1     156.564 157.594 172.215  0.00  0.00    +0.000 OA
ATOM     19  N2  UNL     1     155.628 159.580 172.993  0.00  0.00    +0.000 N 
ATOM     20  H10 UNL     1     154.910 159.084 173.567  0.00  0.00    +0.000 HD
ENDBRANCH   1  16
TORSDOF 1
ENDMDL
MODEL 3
REMARK VINA RESULT:      -6.0     10.518     12.449
REMARK  Name = ./3D_structures\o6_MMV002612_3D.pdb
REMARK  1 active torsions:
REMARK  status: ('A' for Active; 'I' for Inactive)
REMARK    1  A    between atoms: C4_5  and  N1_6
REMARK                            x       y       z     vdW  Elec       q    Type
REMARK                         _______ _______ _______ _____ _____    ______ ____
ROOT
ATOM      1  N1  UNL     1     156.687 158.595 169.663  0.00  0.00    +0.000 N 
ATOM      2  C5  UNL     1     157.063 158.668 171.029  0.00  0.00    +0.000 C 
ATOM      3  O2  UNL     1     158.156 158.290 171.560  0.00  0.00    +0.000 OA
ATOM      4  C6  UNL     1     155.988 159.265 171.817  0.00  0.00    +0.000 A 
ATOM      5  C7  UNL     1     155.850 159.555 173.164  0.00  0.00    +0.000 A 
ATOM      6  C8  UNL     1     154.678 160.132 173.593  0.00  0.00    +0.000 A 
ATOM      7  C9  UNL     1     153.632 160.432 172.728  0.00  0.00    +0.000 A 
ATOM      8  C10 UNL     1     153.824 160.122 171.401  0.00  0.00    +0.000 A 
ATOM      9  C11 UNL     1     154.975 159.545 170.910  0.00  0.00    +0.000 A 
ATOM     10  C12 UNL     1     155.394 159.134 169.573  0.00  0.00    +0.000 C 
ATOM     11  O3  UNL     1     154.724 159.241 168.515  0.00  0.00    +0.000 OA
ENDROOT
BRANCH   1  16
ATOM     12  O1  UNL     1     157.294 157.386 164.517  0.00  0.00    +0.000 OA
ATOM     13  C1  UNL     1     157.538 157.582 165.732  0.00  0.00    +0.000 C 
ATOM     14  C2  UNL     1     157.605 156.488 166.736  0.00  0.00    +0.000 C 
ATOM     15  C3  UNL     1     156.757 156.929 167.930  0.00  0.00    +0.000 C 
ATOM     16  C4  UNL     1     157.518 158.056 168.596  0.00  0.00    +0.000 C 
ATOM     17  C13 UNL     1     157.905 159.107 167.626  0.00  0.00    +0.000 C 
ATOM     18  O4  UNL     1     158.358 160.188 168.077  0.00  0.00    +0.000 OA
ATOM     19  N2  UNL     1     157.771 158.905 166.224  0.00  0.00    +0.000 N 
ATOM     20  H10 UNL     1     157.842 159.715 165.568  0.00  0.00    +0.000 HD
ENDBRANCH   1  16
TORSDOF 1
ENDMDL
MODEL 4
REMARK VINA RESULT:      -6.0     10.534     12.489
REMARK  Name = ./3D_structures\o6_MMV002612_3D.pdb
REMARK  1 active torsions:
REMARK  status: ('A' for Active; 'I' for Inactive)
REMARK    1  A    between atoms: C4_5  and  N1_6
REMARK                            x       y       z     vdW  Elec       q    Type
REMARK                         _______ _______ _______ _____ _____    ______ ____
ROOT
ATOM      1  N1  UNL     1     156.803 158.579 169.724  0.00  0.00    +0.000 N 
ATOM      2  C5  UNL     1     155.490 159.104 169.603  0.00  0.00    +0.000 C 
ATOM      3  O2  UNL     1     154.785 159.210 168.549  0.00  0.00    +0.000 OA
ATOM      4  C6  UNL     1     154.999 159.540 170.908  0.00  0.00    +0.000 A 
ATOM      5  C7  UNL     1     153.810 160.109 171.329  0.00  0.00    +0.000 A 
ATOM      6  C8  UNL     1     153.662 160.407 172.663  0.00  0.00    +0.000 A 
ATOM      7  C9  UNL     1     154.660 160.158 173.599  0.00  0.00    +0.000 A 
ATOM      8  C10 UNL     1     155.820 159.591 173.125  0.00  0.00    +0.000 A 
ATOM      9  C11 UNL     1     156.027 159.269 171.800  0.00  0.00    +0.000 A 
ATOM     10  C12 UNL     1     157.150 158.675 171.080  0.00  0.00    +0.000 C 
ATOM     11  O3  UNL     1     158.244 158.307 171.578  0.00  0.00    +0.000 OA
ENDROOT
BRANCH   1  16
ATOM     12  O1  UNL     1     157.244 157.464 164.540  0.00  0.00    +0.000 OA
ATOM     13  C1  UNL     1     157.525 157.635 165.751  0.00  0.00    +0.000 C 
ATOM     14  C2  UNL     1     157.612 156.520 166.732  0.00  0.00    +0.000 C 
ATOM     15  C3  UNL     1     156.805 156.946 167.959  0.00  0.00    +0.000 C 
ATOM     16  C4  UNL     1     157.596 158.053 168.623  0.00  0.00    +0.000 C 
ATOM     17  C13 UNL     1     157.964 159.119 167.662  0.00  0.00    +0.000 C 
ATOM     18  O4  UNL     1     158.441 160.186 168.119  0.00  0.00    +0.000 OA
ATOM     19  N2  UNL     1     157.786 158.945 166.261  0.00  0.00    +0.000 N 
ATOM     20  H10 UNL     1     157.845 159.767 165.619  0.00  0.00    +0.000 HD
ENDBRANCH   1  16
TORSDOF 1
ENDMDL
MODEL 5
REMARK VINA RESULT:      -5.9      0.578      2.095
REMARK  Name = ./3D_structures\o6_MMV002612_3D.pdb
REMARK  1 active torsions:
REMARK  status: ('A' for Active; 'I' for Inactive)
REMARK    1  A    between atoms: C4_5  and  N1_6
REMARK                            x       y       z     vdW  Elec       q    Type
REMARK                         _______ _______ _______ _____ _____    ______ ____
ROOT
ATOM      1  N1  UNL     1     147.369 165.237 166.923  0.00  0.00    +0.000 N 
ATOM      2  C5  UNL     1     147.058 165.180 168.307  0.00  0.00    +0.000 C 
ATOM      3  O2  UNL     1     145.915 165.028 168.845  0.00  0.00    +0.000 OA
ATOM      4  C6  UNL     1     148.274 165.327 169.103  0.00  0.00    +0.000 A 
ATOM      5  C7  UNL     1     148.516 165.342 170.466  0.00  0.00    +0.000 A 
ATOM      6  C8  UNL     1     149.811 165.502 170.899  0.00  0.00    +0.000 A 
ATOM      7  C9  UNL     1     150.880 165.650 170.023  0.00  0.00    +0.000 A 
ATOM      8  C10 UNL     1     150.581 165.627 168.680  0.00  0.00    +0.000 A 
ATOM      9  C11 UNL     1     149.304 165.469 168.184  0.00  0.00    +0.000 A 
ATOM     10  C12 UNL     1     148.758 165.416 166.830  0.00  0.00    +0.000 C 
ATOM     11  O3  UNL     1     149.408 165.511 165.760  0.00  0.00    +0.000 OA
ENDROOT
BRANCH   1  16
ATOM     12  O1  UNL     1     142.303 164.740 165.374  0.00  0.00    +0.000 OA
ATOM     13  C1  UNL     1     143.545 164.917 165.350  0.00  0.00    +0.000 C 
ATOM     14  C2  UNL     1     144.512 163.848 164.985  0.00  0.00    +0.000 C 
ATOM     15  C3  UNL     1     145.604 163.853 166.055  0.00  0.00    +0.000 C 
ATOM     16  C4  UNL     1     146.398 165.125 165.844  0.00  0.00    +0.000 C 
ATOM     17  C13 UNL     1     145.520 166.317 165.779  0.00  0.00    +0.000 C 
ATOM     18  O4  UNL     1     146.061 167.450 165.812  0.00  0.00    +0.000 OA
ATOM     19  N2  UNL     1     144.107 166.190 165.680  0.00  0.00    +0.000 N 
ATOM     20  H10 UNL     1     143.493 167.018 165.848  0.00  0.00    +0.000 HD
ENDBRANCH   1  16
TORSDOF 1
ENDMDL
MODEL 6
REMARK VINA RESULT:      -5.9     10.988     13.285
REMARK  Name = ./3D_structures\o6_MMV002612_3D.pdb
REMARK  1 active torsions:
REMARK  status: ('A' for Active; 'I' for Inactive)
REMARK    1  A    between atoms: C4_5  and  N1_6
REMARK                            x       y       z     vdW  Elec       q    Type
REMARK                         _______ _______ _______ _____ _____    ______ ____
ROOT
ATOM      1  N1  UNL     1     156.568 158.154 168.754  0.00  0.00    +0.000 N 
ATOM      2  C5  UNL     1     155.890 157.368 167.786  0.00  0.00    +0.000 C 
ATOM      3  O2  UNL     1     154.662 157.035 167.772  0.00  0.00    +0.000 OA
ATOM      4  C6  UNL     1     156.816 156.952 166.735  0.00  0.00    +0.000 A 
ATOM      5  C7  UNL     1     156.665 156.192 165.589  0.00  0.00    +0.000 A 
ATOM      6  C8  UNL     1     157.766 155.983 164.792  0.00  0.00    +0.000 A 
ATOM      7  C9  UNL     1     159.019 156.504 165.097  0.00  0.00    +0.000 A 
ATOM      8  C10 UNL     1     159.110 157.251 166.248  0.00  0.00    +0.000 A 
ATOM      9  C11 UNL     1     158.043 157.497 167.086  0.00  0.00    +0.000 A 
ATOM     10  C12 UNL     1     157.905 158.243 168.334  0.00  0.00    +0.000 C 
ATOM     11  O3  UNL     1     158.816 158.863 168.937  0.00  0.00    +0.000 OA
ENDROOT
BRANCH   1  16
ATOM     12  O1  UNL     1     157.007 161.173 173.113  0.00  0.00    +0.000 OA
ATOM     13  C1  UNL     1     156.520 160.482 172.186  0.00  0.00    +0.000 C 
ATOM     14  C2  UNL     1     156.159 159.048 172.343  0.00  0.00    +0.000 C 
ATOM     15  C3  UNL     1     156.756 158.307 171.146  0.00  0.00    +0.000 C 
ATOM     16  C4  UNL     1     155.952 158.735 169.938  0.00  0.00    +0.000 C 
ATOM     17  C13 UNL     1     155.861 160.211 169.832  0.00  0.00    +0.000 C 
ATOM     18  O4  UNL     1     155.400 160.699 168.771  0.00  0.00    +0.000 OA
ATOM     19  N2  UNL     1     156.281 161.055 170.897  0.00  0.00    +0.000 N 
ATOM     20  H10 UNL     1     156.412 162.079 170.735  0.00  0.00    +0.000 HD
ENDBRANCH   1  16
TORSDOF 1
ENDMDL
MODEL 7
REMARK VINA RESULT:      -5.9     10.868     13.076
REMARK  Name = ./3D_structures\o6_MMV002612_3D.pdb
REMARK  1 active torsions:
REMARK  status: ('A' for Active; 'I' for Inactive)
REMARK    1  A    between atoms: C4_5  and  N1_6
REMARK                            x       y       z     vdW  Elec       q    Type
REMARK                         _______ _______ _______ _____ _____    ______ ____
ROOT
ATOM      1  N1  UNL     1     156.364 158.246 169.058  0.00  0.00    +0.000 N 
ATOM      2  C5  UNL     1     157.713 158.421 168.654  0.00  0.00    +0.000 C 
ATOM      3  O2  UNL     1     158.619 159.104 169.231  0.00  0.00    +0.000 OA
ATOM      4  C6  UNL     1     157.969 157.684 167.419  0.00  0.00    +0.000 A 
ATOM      5  C7  UNL     1     159.093 157.528 166.627  0.00  0.00    +0.000 A 
ATOM      6  C8  UNL     1     158.996 156.746 165.500  0.00  0.00    +0.000 A 
ATOM      7  C9  UNL     1     157.816 156.111 165.129  0.00  0.00    +0.000 A 
ATOM      8  C10 UNL     1     156.731 156.302 165.953  0.00  0.00    +0.000 A 
ATOM      9  C11 UNL     1     156.765 157.073 167.096  0.00  0.00    +0.000 A 
ATOM     10  C12 UNL     1     155.763 157.412 168.103  0.00  0.00    +0.000 C 
ATOM     11  O3  UNL     1     154.566 157.030 168.122  0.00  0.00    +0.000 OA
ENDROOT
BRANCH   1  16
ATOM     12  O1  UNL     1     156.873 161.282 173.398  0.00  0.00    +0.000 OA
ATOM     13  C1  UNL     1     156.371 160.591 172.479  0.00  0.00    +0.000 C 
ATOM     14  C2  UNL     1     156.000 159.160 172.647  0.00  0.00    +0.000 C 
ATOM     15  C3  UNL     1     156.579 158.408 171.448  0.00  0.00    +0.000 C 
ATOM     16  C4  UNL     1     155.765 158.838 170.246  0.00  0.00    +0.000 C 
ATOM     17  C13 UNL     1     155.684 160.314 170.134  0.00  0.00    +0.000 C 
ATOM     18  O4  UNL     1     155.215 160.800 169.076  0.00  0.00    +0.000 OA
ATOM     19  N2  UNL     1     156.123 161.159 171.191  0.00  0.00    +0.000 N 
ATOM     20  H10 UNL     1     156.259 162.181 171.022  0.00  0.00    +0.000 HD
ENDBRANCH   1  16
TORSDOF 1
ENDMDL
MODEL 8
REMARK VINA RESULT:      -5.8      2.270      6.162
REMARK  Name = ./3D_structures\o6_MMV002612_3D.pdb
REMARK  1 active torsions:
REMARK  status: ('A' for Active; 'I' for Inactive)
REMARK    1  A    between atoms: C4_5  and  N1_6
REMARK                            x       y       z     vdW  Elec       q    Type
REMARK                         _______ _______ _______ _____ _____    ______ ____
ROOT
ATOM      1  N1  UNL     1     144.990 164.344 166.475  0.00  0.00    +0.000 N 
ATOM      2  C5  UNL     1     145.341 163.033 166.059  0.00  0.00    +0.000 C 
ATOM      3  O2  UNL     1     146.239 162.274 166.546  0.00  0.00    +0.000 OA
ATOM      4  C6  UNL     1     144.505 162.619 164.936  0.00  0.00    +0.000 A 
ATOM      5  C7  UNL     1     144.443 161.462 164.179  0.00  0.00    +0.000 A 
ATOM      6  C8  UNL     1     143.516 161.391 163.166  0.00  0.00    +0.000 A 
ATOM      7  C9  UNL     1     142.644 162.435 162.876  0.00  0.00    +0.000 A 
ATOM      8  C10 UNL     1     142.751 163.560 163.659  0.00  0.00    +0.000 A 
ATOM      9  C11 UNL     1     143.658 163.691 164.689  0.00  0.00    +0.000 A 
ATOM     10  C12 UNL     1     143.948 164.765 165.635  0.00  0.00    +0.000 C 
ATOM     11  O3  UNL     1     143.371 165.880 165.697  0.00  0.00    +0.000 OA
ENDROOT
BRANCH   1  16
ATOM     12  O1  UNL     1     148.586 164.475 170.394  0.00  0.00    +0.000 OA
ATOM     13  C1  UNL     1     147.713 164.828 169.566  0.00  0.00    +0.000 C 
ATOM     14  C2  UNL     1     146.273 164.969 169.911  0.00  0.00    +0.000 C 
ATOM     15  C3  UNL     1     145.483 164.238 168.826  0.00  0.00    +0.000 C 
ATOM     16  C4  UNL     1     145.619 165.069 167.569  0.00  0.00    +0.000 C 
ATOM     17  C13 UNL     1     147.036 165.382 167.267  0.00  0.00    +0.000 C 
ATOM     18  O4  UNL     1     147.303 165.888 166.150  0.00  0.00    +0.000 OA
ATOM     19  N2  UNL     1     148.068 165.121 168.212  0.00  0.00    +0.000 N 
ATOM     20  H10 UNL     1     149.069 165.145 167.914  0.00  0.00    +0.000 HD
ENDBRANCH   1  16
TORSDOF 1
ENDMDL
MODEL 9
REMARK VINA RESULT:      -5.8     13.013     14.228
REMARK  Name = ./3D_structures\o6_MMV002612_3D.pdb
REMARK  1 active torsions:
REMARK  status: ('A' for Active; 'I' for Inactive)
REMARK    1  A    between atoms: C4_5  and  N1_6
REMARK                            x       y       z     vdW  Elec       q    Type
REMARK                         _______ _______ _______ _____ _____    ______ ____
ROOT
ATOM      1  N1  UNL     1     158.451 157.406 166.616  0.00  0.00    +0.000 N 
ATOM      2  C5  UNL     1     159.061 158.056 167.720  0.00  0.00    +0.000 C 
ATOM      3  O2  UNL     1     160.211 158.600 167.768  0.00  0.00    +0.000 OA
ATOM      4  C6  UNL     1     158.169 158.032 168.876  0.00  0.00    +0.000 A 
ATOM      5  C7  UNL     1     158.281 158.516 170.168  0.00  0.00    +0.000 A 
ATOM      6  C8  UNL     1     157.230 158.323 171.033  0.00  0.00    +0.000 A 
ATOM      7  C9  UNL     1     156.065 157.663 170.658  0.00  0.00    +0.000 A 
ATOM      8  C10 UNL     1     156.009 157.203 169.363  0.00  0.00    +0.000 A 
ATOM      9  C11 UNL     1     157.028 157.366 168.449  0.00  0.00    +0.000 A 
ATOM     10  C12 UNL     1     157.190 156.973 167.052  0.00  0.00    +0.000 C 
ATOM     11  O3  UNL     1     156.351 156.353 166.350  0.00  0.00    +0.000 OA
ENDROOT
BRANCH   1  16
ATOM     12  O1  UNL     1     158.082 155.677 161.597  0.00  0.00    +0.000 OA
ATOM     13  C1  UNL     1     158.499 156.247 162.634  0.00  0.00    +0.000 C 
ATOM     14  C2  UNL     1     159.550 155.670 163.513  0.00  0.00    +0.000 C 
ATOM     15  C3  UNL     1     159.034 155.774 164.949  0.00  0.00    +0.000 C 
ATOM     16  C4  UNL     1     159.058 157.245 165.302  0.00  0.00    +0.000 C 
ATOM     17  C13 UNL     1     158.366 158.068 164.281  0.00  0.00    +0.000 C 
ATOM     18  O4  UNL     1     158.136 159.272 164.552  0.00  0.00    +0.000 OA
ATOM     19  N2  UNL     1     157.972 157.516 163.031  0.00  0.00    +0.000 N 
ATOM     20  H10 UNL     1     157.306 158.035 162.415  0.00  0.00    +0.000 HD
ENDBRANCH   1  16
TORSDOF 1
ENDMDL
