MODEL 1
REMARK VINA RESULT:      -5.9      0.000      0.000
REMARK  Name = ./3D_structures\o70_MMV1578891_3D.pdb
REMARK  3 active torsions:
REMARK  status: ('A' for Active; 'I' for Inactive)
REMARK    1  A    between atoms: C1_2  and  C2_3
REMARK    2  A    between atoms: C2_3  and  N1_4
REMARK    3  A    between atoms: N3_15  and  C11_16
REMARK                            x       y       z     vdW  Elec       q    Type
REMARK                         _______ _______ _______ _____ _____    ______ ____
ROOT
ATOM      1  C2  UNL     1     157.757 155.958 163.478  0.00  0.00    +0.000 C 
ENDROOT
BRANCH   1   2
ATOM      2  N1  UNL     1     158.261 156.599 164.659  0.00  0.00    +0.000 N 
ATOM      3  C3  UNL     1     159.485 157.138 164.663  0.00  0.00    +0.000 A 
ATOM      4  N2  UNL     1     159.974 157.741 165.757  0.00  0.00    +0.000 NA
ATOM      5  C4  UNL     1     159.219 157.801 166.864  0.00  0.00    +0.000 A 
ATOM      6  C5  UNL     1     159.671 158.416 168.035  0.00  0.00    +0.000 A 
ATOM      7  C6  UNL     1     158.898 158.479 169.169  0.00  0.00    +0.000 A 
ATOM      8  C7  UNL     1     157.622 157.922 169.181  0.00  0.00    +0.000 A 
ATOM      9  C8  UNL     1     157.172 157.316 168.035  0.00  0.00    +0.000 A 
ATOM     10  C9  UNL     1     157.951 157.254 166.891  0.00  0.00    +0.000 A 
ATOM     11  C10 UNL     1     157.482 156.642 165.746  0.00  0.00    +0.000 A 
ATOM     12  O2  UNL     1     156.311 156.129 165.752  0.00  0.00    +0.000 OA
ENDBRANCH   1   2
BRANCH   1  14
ATOM     13  O1  UNL     1     159.054 154.121 162.788  0.00  0.00    +0.000 OA
ATOM     14  C1  UNL     1     158.083 154.504 163.444  0.00  0.00    +0.000 C 
ATOM     15  N3  UNL     1     157.281 153.590 164.163  0.00  0.00    +0.000 N 
ATOM     16  H8  UNL     1     156.464 154.016 164.702  0.00  0.00    +0.000 HD
BRANCH  15  17
ATOM     17  C11 UNL     1     157.459 152.193 164.230  0.00  0.00    +0.000 A 
ATOM     18  C12 UNL     1     158.517 151.524 164.780  0.00  0.00    +0.000 A 
ATOM     19  C13 UNL     1     158.621 150.132 164.808  0.00  0.00    +0.000 A 
ATOM     20  C14 UNL     1     157.620 149.370 164.260  0.00  0.00    +0.000 A 
ATOM     21  C15 UNL     1     156.534 150.001 163.694  0.00  0.00    +0.000 A 
ATOM     22  C16 UNL     1     156.466 151.373 163.685  0.00  0.00    +0.000 A 
ENDBRANCH  15  17
ENDBRANCH   1  14
TORSDOF 3
ENDMDL
MODEL 2
REMARK VINA RESULT:      -5.7      7.131      8.924
REMARK  Name = ./3D_structures\o70_MMV1578891_3D.pdb
REMARK  3 active torsions:
REMARK  status: ('A' for Active; 'I' for Inactive)
REMARK    1  A    between atoms: C1_2  and  C2_3
REMARK    2  A    between atoms: C2_3  and  N1_4
REMARK    3  A    between atoms: N3_15  and  C11_16
REMARK                            x       y       z     vdW  Elec       q    Type
REMARK                         _______ _______ _______ _____ _____    ______ ____
ROOT
ATOM      1  C2  UNL     1     151.386 158.664 169.646  0.00  0.00    +0.000 C 
ENDROOT
BRANCH   1   2
ATOM      2  N1  UNL     1     152.655 158.936 170.259  0.00  0.00    +0.000 N 
ATOM      3  C3  UNL     1     152.743 159.814 171.265  0.00  0.00    +0.000 A 
ATOM      4  N2  UNL     1     153.919 160.083 171.850  0.00  0.00    +0.000 NA
ATOM      5  C4  UNL     1     155.024 159.458 171.417  0.00  0.00    +0.000 A 
ATOM      6  C5  UNL     1     156.278 159.694 171.987  0.00  0.00    +0.000 A 
ATOM      7  C6  UNL     1     157.411 159.054 171.544  0.00  0.00    +0.000 A 
ATOM      8  C7  UNL     1     157.336 158.137 170.499  0.00  0.00    +0.000 A 
ATOM      9  C8  UNL     1     156.107 157.901 169.935  0.00  0.00    +0.000 A 
ATOM     10  C9  UNL     1     154.965 158.546 170.382  0.00  0.00    +0.000 A 
ATOM     11  C10 UNL     1     153.738 158.296 169.804  0.00  0.00    +0.000 A 
ATOM     12  O2  UNL     1     153.664 157.455 168.843  0.00  0.00    +0.000 OA
ENDBRANCH   1   2
BRANCH   1  14
ATOM     13  O1  UNL     1     149.535 158.000 170.937  0.00  0.00    +0.000 OA
ATOM     14  C1  UNL     1     150.597 157.658 170.411  0.00  0.00    +0.000 C 
ATOM     15  N3  UNL     1     151.072 156.332 170.523  0.00  0.00    +0.000 N 
ATOM     16  H8  UNL     1     151.999 156.131 170.034  0.00  0.00    +0.000 HD
BRANCH  15  17
ATOM     17  C11 UNL     1     150.444 155.273 171.209  0.00  0.00    +0.000 A 
ATOM     18  C12 UNL     1     149.594 154.341 170.681  0.00  0.00    +0.000 A 
ATOM     19  C13 UNL     1     149.010 153.317 171.429  0.00  0.00    +0.000 A 
ATOM     20  C14 UNL     1     149.287 153.217 172.768  0.00  0.00    +0.000 A 
ATOM     21  C15 UNL     1     150.138 154.135 173.344  0.00  0.00    +0.000 A 
ATOM     22  C16 UNL     1     150.695 155.129 172.577  0.00  0.00    +0.000 A 
ENDBRANCH  15  17
ENDBRANCH   1  14
TORSDOF 3
ENDMDL
MODEL 3
REMARK VINA RESULT:      -5.6      1.492      2.141
REMARK  Name = ./3D_structures\o70_MMV1578891_3D.pdb
REMARK  3 active torsions:
REMARK  status: ('A' for Active; 'I' for Inactive)
REMARK    1  A    between atoms: C1_2  and  C2_3
REMARK    2  A    between atoms: C2_3  and  N1_4
REMARK    3  A    between atoms: N3_15  and  C11_16
REMARK                            x       y       z     vdW  Elec       q    Type
REMARK                         _______ _______ _______ _____ _____    ______ ____
ROOT
ATOM      1  C2  UNL     1     157.988 156.235 163.937  0.00  0.00    +0.000 C 
ENDROOT
BRANCH   1   2
ATOM      2  N1  UNL     1     157.664 156.635 165.277  0.00  0.00    +0.000 N 
ATOM      3  C3  UNL     1     156.442 156.407 165.771  0.00  0.00    +0.000 A 
ATOM      4  N2  UNL     1     156.120 156.774 167.021  0.00  0.00    +0.000 NA
ATOM      5  C4  UNL     1     157.042 157.379 167.784  0.00  0.00    +0.000 A 
ATOM      6  C5  UNL     1     156.767 157.785 169.093  0.00  0.00    +0.000 A 
ATOM      7  C6  UNL     1     157.711 158.405 169.876  0.00  0.00    +0.000 A 
ATOM      8  C7  UNL     1     158.987 158.649 169.376  0.00  0.00    +0.000 A 
ATOM      9  C8  UNL     1     159.263 158.254 168.091  0.00  0.00    +0.000 A 
ATOM     10  C9  UNL     1     158.312 157.628 167.302  0.00  0.00    +0.000 A 
ATOM     11  C10 UNL     1     158.606 157.237 166.012  0.00  0.00    +0.000 A 
ATOM     12  O2  UNL     1     159.777 157.460 165.548  0.00  0.00    +0.000 OA
ENDBRANCH   1   2
BRANCH   1  14
ATOM     13  O1  UNL     1     159.229 154.265 164.271  0.00  0.00    +0.000 OA
ATOM     14  C1  UNL     1     158.193 154.763 163.825  0.00  0.00    +0.000 C 
ATOM     15  N3  UNL     1     157.203 153.962 163.213  0.00  0.00    +0.000 N 
ATOM     16  H8  UNL     1     156.342 154.483 162.859  0.00  0.00    +0.000 HD
BRANCH  15  17
ATOM     17  C11 UNL     1     157.250 152.565 163.032  0.00  0.00    +0.000 A 
ATOM     18  C12 UNL     1     157.829 151.889 161.994  0.00  0.00    +0.000 A 
ATOM     19  C13 UNL     1     157.834 150.497 161.885  0.00  0.00    +0.000 A 
ATOM     20  C14 UNL     1     157.232 149.742 162.859  0.00  0.00    +0.000 A 
ATOM     21  C15 UNL     1     156.635 150.380 163.925  0.00  0.00    +0.000 A 
ATOM     22  C16 UNL     1     156.650 151.752 163.999  0.00  0.00    +0.000 A 
ENDBRANCH  15  17
ENDBRANCH   1  14
TORSDOF 3
ENDMDL
MODEL 4
REMARK VINA RESULT:      -5.5      2.304      3.813
REMARK  Name = ./3D_structures\o70_MMV1578891_3D.pdb
REMARK  3 active torsions:
REMARK  status: ('A' for Active; 'I' for Inactive)
REMARK    1  A    between atoms: C1_2  and  C2_3
REMARK    2  A    between atoms: C2_3  and  N1_4
REMARK    3  A    between atoms: N3_15  and  C11_16
REMARK                            x       y       z     vdW  Elec       q    Type
REMARK                         _______ _______ _______ _____ _____    ______ ____
ROOT
ATOM      1  C2  UNL     1     156.980 158.497 165.955  0.00  0.00    +0.000 C 
ENDROOT
BRANCH   1   2
ATOM      2  N1  UNL     1     157.089 158.541 167.385  0.00  0.00    +0.000 N 
ATOM      3  C3  UNL     1     158.207 158.121 167.988  0.00  0.00    +0.000 A 
ATOM      4  N2  UNL     1     158.329 158.153 169.323  0.00  0.00    +0.000 NA
ATOM      5  C4  UNL     1     157.311 158.615 170.063  0.00  0.00    +0.000 A 
ATOM      6  C5  UNL     1     157.377 158.675 171.458  0.00  0.00    +0.000 A 
ATOM      7  C6  UNL     1     156.334 159.149 172.216  0.00  0.00    +0.000 A 
ATOM      8  C7  UNL     1     155.163 159.589 171.604  0.00  0.00    +0.000 A 
ATOM      9  C8  UNL     1     155.091 159.533 170.235  0.00  0.00    +0.000 A 
ATOM     10  C9  UNL     1     156.144 159.056 169.470  0.00  0.00    +0.000 A 
ATOM     11  C10 UNL     1     156.055 159.007 168.094  0.00  0.00    +0.000 A 
ATOM     12  O2  UNL     1     154.982 159.411 167.526  0.00  0.00    +0.000 OA
ENDBRANCH   1   2
BRANCH   1  14
ATOM     13  O1  UNL     1     155.921 156.410 165.721  0.00  0.00    +0.000 OA
ATOM     14  C1  UNL     1     156.902 157.101 165.440  0.00  0.00    +0.000 C 
ATOM     15  N3  UNL     1     157.948 156.590 164.639  0.00  0.00    +0.000 N 
ATOM     16  H8  UNL     1     158.755 157.263 164.449  0.00  0.00    +0.000 HD
BRANCH  15  17
ATOM     17  C11 UNL     1     158.021 155.298 164.081  0.00  0.00    +0.000 A 
ATOM     18  C12 UNL     1     157.543 154.901 162.863  0.00  0.00    +0.000 A 
ATOM     19  C13 UNL     1     157.654 153.596 162.377  0.00  0.00    +0.000 A 
ATOM     20  C14 UNL     1     158.272 152.641 163.144  0.00  0.00    +0.000 A 
ATOM     21  C15 UNL     1     158.769 152.996 164.380  0.00  0.00    +0.000 A 
ATOM     22  C16 UNL     1     158.642 154.289 164.825  0.00  0.00    +0.000 A 
ENDBRANCH  15  17
ENDBRANCH   1  14
TORSDOF 3
ENDMDL
MODEL 5
REMARK VINA RESULT:      -5.5      5.108      7.850
REMARK  Name = ./3D_structures\o70_MMV1578891_3D.pdb
REMARK  3 active torsions:
REMARK  status: ('A' for Active; 'I' for Inactive)
REMARK    1  A    between atoms: C1_2  and  C2_3
REMARK    2  A    between atoms: C2_3  and  N1_4
REMARK    3  A    between atoms: N3_15  and  C11_16
REMARK                            x       y       z     vdW  Elec       q    Type
REMARK                         _______ _______ _______ _____ _____    ______ ____
ROOT
ATOM      1  C2  UNL     1     163.013 159.200 166.435  0.00  0.00    +0.000 C 
ENDROOT
BRANCH   1   2
ATOM      2  N1  UNL     1     163.891 159.388 167.554  0.00  0.00    +0.000 N 
ATOM      3  C3  UNL     1     164.595 158.358 168.039  0.00  0.00    +0.000 A 
ATOM      4  N2  UNL     1     165.420 158.513 169.084  0.00  0.00    +0.000 NA
ATOM      5  C4  UNL     1     165.540 159.722 169.650  0.00  0.00    +0.000 A 
ATOM      6  C5  UNL     1     166.385 159.948 170.741  0.00  0.00    +0.000 A 
ATOM      7  C6  UNL     1     166.509 161.187 171.322  0.00  0.00    +0.000 A 
ATOM      8  C7  UNL     1     165.784 162.269 170.829  0.00  0.00    +0.000 A 
ATOM      9  C8  UNL     1     164.952 162.055 169.759  0.00  0.00    +0.000 A 
ATOM     10  C9  UNL     1     164.828 160.805 169.173  0.00  0.00    +0.000 A 
ATOM     11  C10 UNL     1     163.988 160.607 168.096  0.00  0.00    +0.000 A 
ATOM     12  O2  UNL     1     163.320 161.598 167.640  0.00  0.00    +0.000 OA
ENDBRANCH   1   2
BRANCH   1  14
ATOM     13  O1  UNL     1     161.777 157.204 166.586  0.00  0.00    +0.000 OA
ATOM     14  C1  UNL     1     161.798 158.418 166.800  0.00  0.00    +0.000 C 
ATOM     15  N3  UNL     1     160.691 159.075 167.384  0.00  0.00    +0.000 N 
ATOM     16  H8  UNL     1     160.803 160.126 167.531  0.00  0.00    +0.000 HD
BRANCH  15  17
ATOM     17  C11 UNL     1     159.478 158.478 167.781  0.00  0.00    +0.000 A 
ATOM     18  C12 UNL     1     158.596 157.799 166.987  0.00  0.00    +0.000 A 
ATOM     19  C13 UNL     1     157.409 157.234 167.457  0.00  0.00    +0.000 A 
ATOM     20  C14 UNL     1     157.086 157.351 168.785  0.00  0.00    +0.000 A 
ATOM     21  C15 UNL     1     157.945 158.027 169.625  0.00  0.00    +0.000 A 
ATOM     22  C16 UNL     1     159.104 158.570 169.126  0.00  0.00    +0.000 A 
ENDBRANCH  15  17
ENDBRANCH   1  14
TORSDOF 3
ENDMDL
MODEL 6
REMARK VINA RESULT:      -5.5      5.336      7.701
REMARK  Name = ./3D_structures\o70_MMV1578891_3D.pdb
REMARK  3 active torsions:
REMARK  status: ('A' for Active; 'I' for Inactive)
REMARK    1  A    between atoms: C1_2  and  C2_3
REMARK    2  A    between atoms: C2_3  and  N1_4
REMARK    3  A    between atoms: N3_15  and  C11_16
REMARK                            x       y       z     vdW  Elec       q    Type
REMARK                         _______ _______ _______ _____ _____    ______ ____
ROOT
ATOM      1  C2  UNL     1     161.795 159.683 166.416  0.00  0.00    +0.000 C 
ENDROOT
BRANCH   1   2
ATOM      2  N1  UNL     1     162.819 160.021 167.364  0.00  0.00    +0.000 N 
ATOM      3  C3  UNL     1     162.844 161.236 167.922  0.00  0.00    +0.000 A 
ATOM      4  N2  UNL     1     163.792 161.572 168.810  0.00  0.00    +0.000 NA
ATOM      5  C4  UNL     1     164.728 160.671 169.140  0.00  0.00    +0.000 A 
ATOM      6  C5  UNL     1     165.742 160.960 170.058  0.00  0.00    +0.000 A 
ATOM      7  C6  UNL     1     166.702 160.037 170.397  0.00  0.00    +0.000 A 
ATOM      8  C7  UNL     1     166.689 158.768 169.825  0.00  0.00    +0.000 A 
ATOM      9  C8  UNL     1     165.697 158.477 168.921  0.00  0.00    +0.000 A 
ATOM     10  C9  UNL     1     164.729 159.408 168.580  0.00  0.00    +0.000 A 
ATOM     11  C10 UNL     1     163.738 159.099 167.671  0.00  0.00    +0.000 A 
ATOM     12  O2  UNL     1     163.722 157.935 167.142  0.00  0.00    +0.000 OA
ENDBRANCH   1   2
BRANCH   1  14
ATOM     13  O1  UNL     1     159.611 160.446 166.838  0.00  0.00    +0.000 OA
ATOM     14  C1  UNL     1     160.453 159.572 167.054  0.00  0.00    +0.000 C 
ATOM     15  N3  UNL     1     160.164 158.473 167.893  0.00  0.00    +0.000 N 
ATOM     16  H8  UNL     1     160.956 157.768 168.020  0.00  0.00    +0.000 HD
BRANCH  15  17
ATOM     17  C11 UNL     1     158.950 158.229 168.565  0.00  0.00    +0.000 A 
ATOM     18  C12 UNL     1     158.638 158.572 169.852  0.00  0.00    +0.000 A 
ATOM     19  C13 UNL     1     157.407 158.293 170.449  0.00  0.00    +0.000 A 
ATOM     20  C14 UNL     1     156.439 157.641 169.728  0.00  0.00    +0.000 A 
ATOM     21  C15 UNL     1     156.709 157.275 168.426  0.00  0.00    +0.000 A 
ATOM     22  C16 UNL     1     157.931 157.566 167.872  0.00  0.00    +0.000 A 
ENDBRANCH  15  17
ENDBRANCH   1  14
TORSDOF 3
ENDMDL
MODEL 7
REMARK VINA RESULT:      -5.4      6.874      8.666
REMARK  Name = ./3D_structures\o70_MMV1578891_3D.pdb
REMARK  3 active torsions:
REMARK  status: ('A' for Active; 'I' for Inactive)
REMARK    1  A    between atoms: C1_2  and  C2_3
REMARK    2  A    between atoms: C2_3  and  N1_4
REMARK    3  A    between atoms: N3_15  and  C11_16
REMARK                            x       y       z     vdW  Elec       q    Type
REMARK                         _______ _______ _______ _____ _____    ______ ____
ROOT
ATOM      1  C2  UNL     1     151.576 158.528 169.657  0.00  0.00    +0.000 C 
ENDROOT
BRANCH   1   2
ATOM      2  N1  UNL     1     153.000 158.358 169.713  0.00  0.00    +0.000 N 
ATOM      3  C3  UNL     1     153.613 157.525 168.864  0.00  0.00    +0.000 A 
ATOM      4  N2  UNL     1     154.942 157.352 168.901  0.00  0.00    +0.000 NA
ATOM      5  C4  UNL     1     155.666 158.029 169.804  0.00  0.00    +0.000 A 
ATOM      6  C5  UNL     1     157.054 157.893 169.892  0.00  0.00    +0.000 A 
ATOM      7  C6  UNL     1     157.797 158.586 170.817  0.00  0.00    +0.000 A 
ATOM      8  C7  UNL     1     157.174 159.458 171.707  0.00  0.00    +0.000 A 
ATOM      9  C8  UNL     1     155.811 159.596 171.627  0.00  0.00    +0.000 A 
ATOM     10  C9  UNL     1     155.062 158.897 170.693  0.00  0.00    +0.000 A 
ATOM     11  C10 UNL     1     153.693 159.048 170.626  0.00  0.00    +0.000 A 
ATOM     12  O2  UNL     1     153.116 159.847 171.441  0.00  0.00    +0.000 OA
ENDBRANCH   1   2
BRANCH   1  14
ATOM     13  O1  UNL     1     150.077 158.065 171.409  0.00  0.00    +0.000 OA
ATOM     14  C1  UNL     1     150.863 157.601 170.580  0.00  0.00    +0.000 C 
ATOM     15  N3  UNL     1     151.095 156.210 170.494  0.00  0.00    +0.000 N 
ATOM     16  H8  UNL     1     151.791 155.903 169.745  0.00  0.00    +0.000 HD
BRANCH  15  17
ATOM     17  C11 UNL     1     150.501 155.211 171.291  0.00  0.00    +0.000 A 
ATOM     18  C12 UNL     1     150.727 154.977 172.620  0.00  0.00    +0.000 A 
ATOM     19  C13 UNL     1     150.098 153.962 173.344  0.00  0.00    +0.000 A 
ATOM     20  C14 UNL     1     149.198 153.141 172.712  0.00  0.00    +0.000 A 
ATOM     21  C15 UNL     1     148.938 153.340 171.373  0.00  0.00    +0.000 A 
ATOM     22  C16 UNL     1     149.577 154.348 170.693  0.00  0.00    +0.000 A 
ENDBRANCH  15  17
ENDBRANCH   1  14
TORSDOF 3
ENDMDL
MODEL 8
REMARK VINA RESULT:      -5.4      4.372      8.754
REMARK  Name = ./3D_structures\o70_MMV1578891_3D.pdb
REMARK  3 active torsions:
REMARK  status: ('A' for Active; 'I' for Inactive)
REMARK    1  A    between atoms: C1_2  and  C2_3
REMARK    2  A    between atoms: C2_3  and  N1_4
REMARK    3  A    between atoms: N3_15  and  C11_16
REMARK                            x       y       z     vdW  Elec       q    Type
REMARK                         _______ _______ _______ _____ _____    ______ ____
ROOT
ATOM      1  C2  UNL     1     157.791 158.583 170.559  0.00  0.00    +0.000 C 
ENDROOT
BRANCH   1   2
ATOM      2  N1  UNL     1     157.502 157.989 169.284  0.00  0.00    +0.000 N 
ATOM      3  C3  UNL     1     156.328 157.383 169.074  0.00  0.00    +0.000 A 
ATOM      4  N2  UNL     1     156.040 156.822 167.891  0.00  0.00    +0.000 NA
ATOM      5  C4  UNL     1     156.946 156.872 166.904  0.00  0.00    +0.000 A 
ATOM      6  C5  UNL     1     156.705 156.307 165.648  0.00  0.00    +0.000 A 
ATOM      7  C6  UNL     1     157.633 156.358 164.636  0.00  0.00    +0.000 A 
ATOM      8  C7  UNL     1     158.859 156.985 164.839  0.00  0.00    +0.000 A 
ATOM      9  C8  UNL     1     159.103 157.542 166.070  0.00  0.00    +0.000 A 
ATOM     10  C9  UNL     1     158.167 157.491 167.090  0.00  0.00    +0.000 A 
ATOM     11  C10 UNL     1     158.428 158.056 168.321  0.00  0.00    +0.000 A 
ATOM     12  O2  UNL     1     159.553 158.633 168.512  0.00  0.00    +0.000 OA
ENDBRANCH   1   2
BRANCH   1  14
ATOM     13  O1  UNL     1     156.388 157.828 172.289  0.00  0.00    +0.000 OA
ATOM     14  C1  UNL     1     156.578 158.681 171.420  0.00  0.00    +0.000 C 
ATOM     15  N3  UNL     1     155.669 159.745 171.230  0.00  0.00    +0.000 N 
ATOM     16  H8  UNL     1     155.919 160.434 170.454  0.00  0.00    +0.000 HD
BRANCH  15  17
ATOM     17  C11 UNL     1     154.485 159.975 171.959  0.00  0.00    +0.000 A 
ATOM     18  C12 UNL     1     154.385 160.352 173.270  0.00  0.00    +0.000 A 
ATOM     19  C13 UNL     1     153.170 160.560 173.924  0.00  0.00    +0.000 A 
ATOM     20  C14 UNL     1     151.995 160.383 173.238  0.00  0.00    +0.000 A 
ATOM     21  C15 UNL     1     152.046 160.003 171.914  0.00  0.00    +0.000 A 
ATOM     22  C16 UNL     1     153.261 159.807 171.303  0.00  0.00    +0.000 A 
ENDBRANCH  15  17
ENDBRANCH   1  14
TORSDOF 3
ENDMDL
MODEL 9
REMARK VINA RESULT:      -5.3     11.817     13.961
REMARK  Name = ./3D_structures\o70_MMV1578891_3D.pdb
REMARK  3 active torsions:
REMARK  status: ('A' for Active; 'I' for Inactive)
REMARK    1  A    between atoms: C1_2  and  C2_3
REMARK    2  A    between atoms: C2_3  and  N1_4
REMARK    3  A    between atoms: N3_15  and  C11_16
REMARK                            x       y       z     vdW  Elec       q    Type
REMARK                         _______ _______ _______ _____ _____    ______ ____
ROOT
ATOM      1  C2  UNL     1     149.356 165.949 167.189  0.00  0.00    +0.000 C 
ENDROOT
BRANCH   1   2
ATOM      2  N1  UNL     1     147.980 165.698 166.871  0.00  0.00    +0.000 N 
ATOM      3  C3  UNL     1     147.365 166.420 165.927  0.00  0.00    +0.000 A 
ATOM      4  N2  UNL     1     146.079 166.202 165.615  0.00  0.00    +0.000 NA
ATOM      5  C4  UNL     1     145.401 165.243 166.263  0.00  0.00    +0.000 A 
ATOM      6  C5  UNL     1     144.060 164.967 165.984  0.00  0.00    +0.000 A 
ATOM      7  C6  UNL     1     143.365 163.985 166.647  0.00  0.00    +0.000 A 
ATOM      8  C7  UNL     1     143.990 163.226 167.632  0.00  0.00    +0.000 A 
ATOM      9  C8  UNL     1     145.308 163.491 167.912  0.00  0.00    +0.000 A 
ATOM     10  C9  UNL     1     146.008 164.482 167.243  0.00  0.00    +0.000 A 
ATOM     11  C10 UNL     1     147.333 164.735 167.536  0.00  0.00    +0.000 A 
ATOM     12  O2  UNL     1     147.912 164.041 168.440  0.00  0.00    +0.000 OA
ENDBRANCH   1   2
BRANCH   1  14
ATOM     13  O1  UNL     1     150.569 165.383 165.254  0.00  0.00    +0.000 OA
ATOM     14  C1  UNL     1     150.281 165.074 166.413  0.00  0.00    +0.000 C 
ATOM     15  N3  UNL     1     150.812 163.911 167.011  0.00  0.00    +0.000 N 
ATOM     16  H8  UNL     1     150.506 163.727 168.017  0.00  0.00    +0.000 HD
BRANCH  15  17
ATOM     17  C11 UNL     1     151.693 162.988 166.411  0.00  0.00    +0.000 A 
ATOM     18  C12 UNL     1     151.367 161.785 165.849  0.00  0.00    +0.000 A 
ATOM     19  C13 UNL     1     152.301 160.923 165.272  0.00  0.00    +0.000 A 
ATOM     20  C14 UNL     1     153.626 161.278 165.255  0.00  0.00    +0.000 A 
ATOM     21  C15 UNL     1     154.002 162.482 165.810  0.00  0.00    +0.000 A 
ATOM     22  C16 UNL     1     153.055 163.305 166.369  0.00  0.00    +0.000 A 
ENDBRANCH  15  17
ENDBRANCH   1  14
TORSDOF 3
ENDMDL
