MODEL 1
REMARK VINA RESULT:      -5.6      0.000      0.000
REMARK  Name = ./3D_structures\o71_MMV124656_3D.pdb
REMARK  7 active torsions:
REMARK  status: ('A' for Active; 'I' for Inactive)
REMARK    1  A    between atoms: C1_1  and  C2_2
REMARK    2  A    between atoms: C2_2  and  O1_3
REMARK    3  A    between atoms: O1_3  and  C3_4
REMARK    4  A    between atoms: C6_7  and  C9_10
REMARK    5  A    between atoms: N1_12  and  C10_13
REMARK    6  A    between atoms: C10_13  and  C11_14
REMARK    7  A    between atoms: C11_14  and  C12_15
REMARK                            x       y       z     vdW  Elec       q    Type
REMARK                         _______ _______ _______ _____ _____    ______ ____
ROOT
ATOM      1  C9  UNL     1     154.976 159.739 165.941  0.00  0.00    +0.000 C 
ATOM      2  O2  UNL     1     156.235 159.871 166.060  0.00  0.00    +0.000 OA
ATOM      3  N1  UNL     1     154.400 158.511 166.363  0.00  0.00    +0.000 N 
ATOM      4  H10 UNL     1     153.379 158.394 166.272  0.00  0.00    +0.000 HD
ENDROOT
BRANCH   1   8
ATOM      5  C3  UNL     1     152.595 162.849 164.349  0.00  0.00    +0.000 A 
ATOM      6  C4  UNL     1     153.963 163.005 164.394  0.00  0.00    +0.000 A 
ATOM      7  C5  UNL     1     154.743 161.988 164.915  0.00  0.00    +0.000 A 
ATOM      8  C6  UNL     1     154.197 160.834 165.386  0.00  0.00    +0.000 A 
ATOM      9  C7  UNL     1     152.827 160.713 165.324  0.00  0.00    +0.000 A 
ATOM     10  C8  UNL     1     152.008 161.695 164.816  0.00  0.00    +0.000 A 
BRANCH   5  11
ATOM     11  O1  UNL     1     151.830 163.875 163.825  0.00  0.00    +0.000 OA
BRANCH  11  13
ATOM     12  C1  UNL     1     150.769 165.227 165.438  0.00  0.00    +0.000 C 
ATOM     13  C2  UNL     1     151.910 165.155 164.423  0.00  0.00    +0.000 C 
ENDBRANCH  11  13
ENDBRANCH   5  11
ENDBRANCH   1   8
BRANCH   3  14
ATOM     14  C10 UNL     1     155.271 157.492 166.900  0.00  0.00    +0.000 C 
BRANCH  14  15
ATOM     15  C11 UNL     1     155.024 157.135 168.322  0.00  0.00    +0.000 C 
BRANCH  15  16
ATOM     16  C12 UNL     1     156.072 157.647 169.232  0.00  0.00    +0.000 A 
ATOM     17  C13 UNL     1     157.350 157.794 168.743  0.00  0.00    +0.000 A 
ATOM     18  C14 UNL     1     158.386 158.279 169.549  0.00  0.00    +0.000 A 
ATOM     19  C15 UNL     1     158.109 158.609 170.848  0.00  0.00    +0.000 A 
ATOM     20  C16 UNL     1     156.829 158.469 171.361  0.00  0.00    +0.000 A 
ATOM     21  C17 UNL     1     155.823 157.988 170.543  0.00  0.00    +0.000 A 
ENDBRANCH  15  16
ENDBRANCH  14  15
ENDBRANCH   3  14
TORSDOF 6
ENDMDL
MODEL 2
REMARK VINA RESULT:      -5.6      5.612      7.980
REMARK  Name = ./3D_structures\o71_MMV124656_3D.pdb
REMARK  7 active torsions:
REMARK  status: ('A' for Active; 'I' for Inactive)
REMARK    1  A    between atoms: C1_1  and  C2_2
REMARK    2  A    between atoms: C2_2  and  O1_3
REMARK    3  A    between atoms: O1_3  and  C3_4
REMARK    4  A    between atoms: C6_7  and  C9_10
REMARK    5  A    between atoms: N1_12  and  C10_13
REMARK    6  A    between atoms: C10_13  and  C11_14
REMARK    7  A    between atoms: C11_14  and  C12_15
REMARK                            x       y       z     vdW  Elec       q    Type
REMARK                         _______ _______ _______ _____ _____    ______ ____
ROOT
ATOM      1  C9  UNL     1     157.003 156.424 166.563  0.00  0.00    +0.000 C 
ATOM      2  O2  UNL     1     155.903 156.471 165.925  0.00  0.00    +0.000 OA
ATOM      3  N1  UNL     1     158.108 155.800 165.922  0.00  0.00    +0.000 N 
ATOM      4  H10 UNL     1     159.005 155.758 166.429  0.00  0.00    +0.000 HD
ENDROOT
BRANCH   1   8
ATOM      5  C3  UNL     1     157.346 158.153 170.404  0.00  0.00    +0.000 A 
ATOM      6  C4  UNL     1     156.206 157.449 170.084  0.00  0.00    +0.000 A 
ATOM      7  C5  UNL     1     156.094 156.883 168.826  0.00  0.00    +0.000 A 
ATOM      8  C6  UNL     1     157.078 157.002 167.894  0.00  0.00    +0.000 A 
ATOM      9  C7  UNL     1     158.202 157.711 168.251  0.00  0.00    +0.000 A 
ATOM     10  C8  UNL     1     158.362 158.293 169.487  0.00  0.00    +0.000 A 
BRANCH   5  11
ATOM     11  O1  UNL     1     157.444 158.713 171.666  0.00  0.00    +0.000 OA
BRANCH  11  13
ATOM     12  C1  UNL     1     155.849 159.878 172.953  0.00  0.00    +0.000 C 
ATOM     13  C2  UNL     1     156.924 160.012 171.874  0.00  0.00    +0.000 C 
ENDBRANCH  11  13
ENDBRANCH   5  11
ENDBRANCH   1   8
BRANCH   3  14
ATOM     14  C10 UNL     1     157.918 155.260 164.597  0.00  0.00    +0.000 C 
BRANCH  14  15
ATOM     15  C11 UNL     1     158.858 154.171 164.219  0.00  0.00    +0.000 C 
BRANCH  15  16
ATOM     16  C12 UNL     1     158.239 152.830 164.290  0.00  0.00    +0.000 A 
ATOM     17  C13 UNL     1     156.952 152.675 163.827  0.00  0.00    +0.000 A 
ATOM     18  C14 UNL     1     156.312 151.431 163.860  0.00  0.00    +0.000 A 
ATOM     19  C15 UNL     1     156.988 150.356 164.367  0.00  0.00    +0.000 A 
ATOM     20  C16 UNL     1     158.285 150.489 164.840  0.00  0.00    +0.000 A 
ATOM     21  C17 UNL     1     158.896 151.728 164.794  0.00  0.00    +0.000 A 
ENDBRANCH  15  16
ENDBRANCH  14  15
ENDBRANCH   3  14
TORSDOF 6
ENDMDL
MODEL 3
REMARK VINA RESULT:      -5.6      1.012      1.848
REMARK  Name = ./3D_structures\o71_MMV124656_3D.pdb
REMARK  7 active torsions:
REMARK  status: ('A' for Active; 'I' for Inactive)
REMARK    1  A    between atoms: C1_1  and  C2_2
REMARK    2  A    between atoms: C2_2  and  O1_3
REMARK    3  A    between atoms: O1_3  and  C3_4
REMARK    4  A    between atoms: C6_7  and  C9_10
REMARK    5  A    between atoms: N1_12  and  C10_13
REMARK    6  A    between atoms: C10_13  and  C11_14
REMARK    7  A    between atoms: C11_14  and  C12_15
REMARK                            x       y       z     vdW  Elec       q    Type
REMARK                         _______ _______ _______ _____ _____    ______ ____
ROOT
ATOM      1  C9  UNL     1     154.384 159.072 166.270  0.00  0.00    +0.000 C 
ATOM      2  O2  UNL     1     153.813 158.635 167.319  0.00  0.00    +0.000 OA
ATOM      3  N1  UNL     1     155.491 158.334 165.768  0.00  0.00    +0.000 N 
ATOM      4  H10 UNL     1     155.962 158.679 164.917  0.00  0.00    +0.000 HD
ENDROOT
BRANCH   1   8
ATOM      5  C3  UNL     1     153.070 162.650 164.443  0.00  0.00    +0.000 A 
ATOM      6  C4  UNL     1     152.144 161.688 164.779  0.00  0.00    +0.000 A 
ATOM      7  C5  UNL     1     152.574 160.516 165.377  0.00  0.00    +0.000 A 
ATOM      8  C6  UNL     1     153.888 160.286 165.643  0.00  0.00    +0.000 A 
ATOM      9  C7  UNL     1     154.784 161.269 165.294  0.00  0.00    +0.000 A 
ATOM     10  C8  UNL     1     154.408 162.451 164.697  0.00  0.00    +0.000 A 
BRANCH   5  11
ATOM     11  O1  UNL     1     152.625 163.815 163.846  0.00  0.00    +0.000 OA
BRANCH  11  13
ATOM     12  C1  UNL     1     151.566 165.748 164.680  0.00  0.00    +0.000 C 
ATOM     13  C2  UNL     1     152.910 165.051 164.473  0.00  0.00    +0.000 C 
ENDBRANCH  11  13
ENDBRANCH   5  11
ENDBRANCH   1   8
BRANCH   3  14
ATOM     14  C10 UNL     1     155.898 157.142 166.473  0.00  0.00    +0.000 C 
BRANCH  14  15
ATOM     15  C11 UNL     1     157.255 157.197 167.077  0.00  0.00    +0.000 C 
BRANCH  15  16
ATOM     16  C12 UNL     1     157.232 157.580 168.505  0.00  0.00    +0.000 A 
ATOM     17  C13 UNL     1     156.168 157.171 169.277  0.00  0.00    +0.000 A 
ATOM     18  C14 UNL     1     156.089 157.494 170.636  0.00  0.00    +0.000 A 
ATOM     19  C15 UNL     1     157.095 158.233 171.197  0.00  0.00    +0.000 A 
ATOM     20  C16 UNL     1     158.176 158.656 170.438  0.00  0.00    +0.000 A 
ATOM     21  C17 UNL     1     158.231 158.322 169.098  0.00  0.00    +0.000 A 
ENDBRANCH  15  16
ENDBRANCH  14  15
ENDBRANCH   3  14
TORSDOF 6
ENDMDL
MODEL 4
REMARK VINA RESULT:      -5.3      1.453      2.015
REMARK  Name = ./3D_structures\o71_MMV124656_3D.pdb
REMARK  7 active torsions:
REMARK  status: ('A' for Active; 'I' for Inactive)
REMARK    1  A    between atoms: C1_1  and  C2_2
REMARK    2  A    between atoms: C2_2  and  O1_3
REMARK    3  A    between atoms: O1_3  and  C3_4
REMARK    4  A    between atoms: C6_7  and  C9_10
REMARK    5  A    between atoms: N1_12  and  C10_13
REMARK    6  A    between atoms: C10_13  and  C11_14
REMARK    7  A    between atoms: C11_14  and  C12_15
REMARK                            x       y       z     vdW  Elec       q    Type
REMARK                         _______ _______ _______ _____ _____    ______ ____
ROOT
ATOM      1  C9  UNL     1     153.930 159.001 166.849  0.00  0.00    +0.000 C 
ATOM      2  O2  UNL     1     154.531 158.332 165.950  0.00  0.00    +0.000 OA
ATOM      3  N1  UNL     1     153.941 158.482 168.172  0.00  0.00    +0.000 N 
ATOM      4  H10 UNL     1     153.457 159.016 168.910  0.00  0.00    +0.000 HD
ENDROOT
BRANCH   1   8
ATOM      5  C3  UNL     1     152.023 162.659 165.929  0.00  0.00    +0.000 A 
ATOM      6  C4  UNL     1     152.167 161.709 164.942  0.00  0.00    +0.000 A 
ATOM      7  C5  UNL     1     152.791 160.512 165.242  0.00  0.00    +0.000 A 
ATOM      8  C6  UNL     1     153.268 160.244 166.488  0.00  0.00    +0.000 A 
ATOM      9  C7  UNL     1     153.106 161.216 167.448  0.00  0.00    +0.000 A 
ATOM     10  C8  UNL     1     152.493 162.423 167.200  0.00  0.00    +0.000 A 
BRANCH   5  11
ATOM     11  O1  UNL     1     151.396 163.851 165.612  0.00  0.00    +0.000 OA
BRANCH  11  13
ATOM     12  C1  UNL     1     151.543 166.046 164.767  0.00  0.00    +0.000 C 
ATOM     13  C2  UNL     1     151.846 164.575 164.483  0.00  0.00    +0.000 C 
ENDBRANCH  11  13
ENDBRANCH   5  11
ENDBRANCH   1   8
BRANCH   3  14
ATOM     14  C10 UNL     1     154.630 157.237 168.416  0.00  0.00    +0.000 C 
BRANCH  14  15
ATOM     15  C11 UNL     1     155.642 157.278 169.505  0.00  0.00    +0.000 C 
BRANCH  15  16
ATOM     16  C12 UNL     1     156.982 157.683 169.027  0.00  0.00    +0.000 A 
ATOM     17  C13 UNL     1     157.348 157.352 167.742  0.00  0.00    +0.000 A 
ATOM     18  C14 UNL     1     158.598 157.712 167.226  0.00  0.00    +0.000 A 
ATOM     19  C15 UNL     1     159.465 158.405 168.026  0.00  0.00    +0.000 A 
ATOM     20  C16 UNL     1     159.117 158.749 169.324  0.00  0.00    +0.000 A 
ATOM     21  C17 UNL     1     157.875 158.383 169.808  0.00  0.00    +0.000 A 
ENDBRANCH  15  16
ENDBRANCH  14  15
ENDBRANCH   3  14
TORSDOF 6
ENDMDL
MODEL 5
REMARK VINA RESULT:      -5.2      5.420      8.389
REMARK  Name = ./3D_structures\o71_MMV124656_3D.pdb
REMARK  7 active torsions:
REMARK  status: ('A' for Active; 'I' for Inactive)
REMARK    1  A    between atoms: C1_1  and  C2_2
REMARK    2  A    between atoms: C2_2  and  O1_3
REMARK    3  A    between atoms: O1_3  and  C3_4
REMARK    4  A    between atoms: C6_7  and  C9_10
REMARK    5  A    between atoms: N1_12  and  C10_13
REMARK    6  A    between atoms: C10_13  and  C11_14
REMARK    7  A    between atoms: C11_14  and  C12_15
REMARK                            x       y       z     vdW  Elec       q    Type
REMARK                         _______ _______ _______ _____ _____    ______ ____
ROOT
ATOM      1  C9  UNL     1     157.576 155.979 165.251  0.00  0.00    +0.000 C 
ATOM      2  O2  UNL     1     156.382 156.065 165.679  0.00  0.00    +0.000 OA
ATOM      3  N1  UNL     1     158.496 156.982 165.660  0.00  0.00    +0.000 N 
ATOM      4  H10 UNL     1     159.468 156.922 165.319  0.00  0.00    +0.000 HD
ENDROOT
BRANCH   1   8
ATOM      5  C3  UNL     1     158.566 152.837 162.602  0.00  0.00    +0.000 A 
ATOM      6  C4  UNL     1     158.974 152.762 163.915  0.00  0.00    +0.000 A 
ATOM      7  C5  UNL     1     158.651 153.790 164.783  0.00  0.00    +0.000 A 
ATOM      8  C6  UNL     1     157.939 154.876 164.375  0.00  0.00    +0.000 A 
ATOM      9  C7  UNL     1     157.548 154.916 163.057  0.00  0.00    +0.000 A 
ATOM     10  C8  UNL     1     157.845 153.920 162.155  0.00  0.00    +0.000 A 
BRANCH   5  11
ATOM     11  O1  UNL     1     158.898 151.801 161.747  0.00  0.00    +0.000 OA
BRANCH  11  13
ATOM     12  C1  UNL     1     157.469 150.588 160.317  0.00  0.00    +0.000 C 
ATOM     13  C2  UNL     1     158.072 150.653 161.721  0.00  0.00    +0.000 C 
ENDBRANCH  11  13
ENDBRANCH   5  11
ENDBRANCH   1   8
BRANCH   3  14
ATOM     14  C10 UNL     1     158.024 158.032 166.532  0.00  0.00    +0.000 C 
BRANCH  14  15
ATOM     15  C11 UNL     1     158.771 158.175 167.809  0.00  0.00    +0.000 C 
BRANCH  15  16
ATOM     16  C12 UNL     1     157.902 158.051 168.999  0.00  0.00    +0.000 A 
ATOM     17  C13 UNL     1     158.286 158.681 170.161  0.00  0.00    +0.000 A 
ATOM     18  C14 UNL     1     157.505 158.608 171.320  0.00  0.00    +0.000 A 
ATOM     19  C15 UNL     1     156.340 157.893 171.285  0.00  0.00    +0.000 A 
ATOM     20  C16 UNL     1     155.933 157.251 170.125  0.00  0.00    +0.000 A 
ATOM     21  C17 UNL     1     156.723 157.339 168.993  0.00  0.00    +0.000 A 
ENDBRANCH  15  16
ENDBRANCH  14  15
ENDBRANCH   3  14
TORSDOF 6
ENDMDL
MODEL 6
REMARK VINA RESULT:      -5.1      5.267      8.045
REMARK  Name = ./3D_structures\o71_MMV124656_3D.pdb
REMARK  7 active torsions:
REMARK  status: ('A' for Active; 'I' for Inactive)
REMARK    1  A    between atoms: C1_1  and  C2_2
REMARK    2  A    between atoms: C2_2  and  O1_3
REMARK    3  A    between atoms: O1_3  and  C3_4
REMARK    4  A    between atoms: C6_7  and  C9_10
REMARK    5  A    between atoms: N1_12  and  C10_13
REMARK    6  A    between atoms: C10_13  and  C11_14
REMARK    7  A    between atoms: C11_14  and  C12_15
REMARK                            x       y       z     vdW  Elec       q    Type
REMARK                         _______ _______ _______ _____ _____    ______ ____
ROOT
ATOM      1  C9  UNL     1     160.685 158.558 167.045  0.00  0.00    +0.000 C 
ATOM      2  O2  UNL     1     160.729 159.393 166.086  0.00  0.00    +0.000 OA
ATOM      3  N1  UNL     1     161.918 158.033 167.516  0.00  0.00    +0.000 N 
ATOM      4  H10 UNL     1     161.895 157.355 168.294  0.00  0.00    +0.000 HD
ENDROOT
BRANCH   1   8
ATOM      5  C3  UNL     1     156.977 157.528 168.794  0.00  0.00    +0.000 A 
ATOM      6  C4  UNL     1     157.203 157.224 167.469  0.00  0.00    +0.000 A 
ATOM      7  C5  UNL     1     158.416 157.561 166.896  0.00  0.00    +0.000 A 
ATOM      8  C6  UNL     1     159.396 158.186 167.604  0.00  0.00    +0.000 A 
ATOM      9  C7  UNL     1     159.135 158.473 168.925  0.00  0.00    +0.000 A 
ATOM     10  C8  UNL     1     157.945 158.160 169.541  0.00  0.00    +0.000 A 
BRANCH   5  11
ATOM     11  O1  UNL     1     155.759 157.185 169.352  0.00  0.00    +0.000 OA
BRANCH  11  13
ATOM     12  C1  UNL     1     153.615 158.162 169.283  0.00  0.00    +0.000 C 
ATOM     13  C2  UNL     1     154.599 157.254 168.545  0.00  0.00    +0.000 C 
ENDBRANCH  11  13
ENDBRANCH   5  11
ENDBRANCH   1   8
BRANCH   3  14
ATOM     14  C10 UNL     1     163.139 158.474 166.884  0.00  0.00    +0.000 C 
BRANCH  14  15
ATOM     15  C11 UNL     1     164.392 158.002 167.532  0.00  0.00    +0.000 C 
BRANCH  15  16
ATOM     16  C12 UNL     1     164.940 158.978 168.499  0.00  0.00    +0.000 A 
ATOM     17  C13 UNL     1     165.925 158.561 169.364  0.00  0.00    +0.000 A 
ATOM     18  C14 UNL     1     166.491 159.437 170.298  0.00  0.00    +0.000 A 
ATOM     19  C15 UNL     1     166.046 160.729 170.342  0.00  0.00    +0.000 A 
ATOM     20  C16 UNL     1     165.054 161.171 169.479  0.00  0.00    +0.000 A 
ATOM     21  C17 UNL     1     164.512 160.286 168.565  0.00  0.00    +0.000 A 
ENDBRANCH  15  16
ENDBRANCH  14  15
ENDBRANCH   3  14
TORSDOF 6
ENDMDL
MODEL 7
REMARK VINA RESULT:      -5.1      2.033      2.893
REMARK  Name = ./3D_structures\o71_MMV124656_3D.pdb
REMARK  7 active torsions:
REMARK  status: ('A' for Active; 'I' for Inactive)
REMARK    1  A    between atoms: C1_1  and  C2_2
REMARK    2  A    between atoms: C2_2  and  O1_3
REMARK    3  A    between atoms: O1_3  and  C3_4
REMARK    4  A    between atoms: C6_7  and  C9_10
REMARK    5  A    between atoms: N1_12  and  C10_13
REMARK    6  A    between atoms: C10_13  and  C11_14
REMARK    7  A    between atoms: C11_14  and  C12_15
REMARK                            x       y       z     vdW  Elec       q    Type
REMARK                         _______ _______ _______ _____ _____    ______ ____
ROOT
ATOM      1  C9  UNL     1     155.154 158.327 167.656  0.00  0.00    +0.000 C 
ATOM      2  O2  UNL     1     154.868 157.106 167.873  0.00  0.00    +0.000 OA
ATOM      3  N1  UNL     1     156.504 158.728 167.838  0.00  0.00    +0.000 N 
ATOM      4  H10 UNL     1     156.748 159.715 167.664  0.00  0.00    +0.000 HD
ENDROOT
BRANCH   1   8
ATOM      5  C3  UNL     1     152.053 160.988 166.574  0.00  0.00    +0.000 A 
ATOM      6  C4  UNL     1     152.897 160.506 165.597  0.00  0.00    +0.000 A 
ATOM      7  C5  UNL     1     153.912 159.635 165.951  0.00  0.00    +0.000 A 
ATOM      8  C6  UNL     1     154.102 159.239 167.239  0.00  0.00    +0.000 A 
ATOM      9  C7  UNL     1     153.240 159.740 168.187  0.00  0.00    +0.000 A 
ATOM     10  C8  UNL     1     152.216 160.609 167.887  0.00  0.00    +0.000 A 
BRANCH   5  11
ATOM     11  O1  UNL     1     151.043 161.858 166.205  0.00  0.00    +0.000 OA
BRANCH  11  13
ATOM     12  C1  UNL     1     150.497 163.959 167.123  0.00  0.00    +0.000 C 
ATOM     13  C2  UNL     1     150.255 162.452 167.218  0.00  0.00    +0.000 C 
ENDBRANCH  11  13
ENDBRANCH   5  11
ENDBRANCH   1   8
BRANCH   3  14
ATOM     14  C10 UNL     1     157.466 157.735 168.256  0.00  0.00    +0.000 C 
BRANCH  14  15
ATOM     15  C11 UNL     1     158.372 158.157 169.356  0.00  0.00    +0.000 C 
BRANCH  15  16
ATOM     16  C12 UNL     1     157.665 158.876 170.438  0.00  0.00    +0.000 A 
ATOM     17  C13 UNL     1     157.819 160.241 170.528  0.00  0.00    +0.000 A 
ATOM     18  C14 UNL     1     157.172 160.982 171.523  0.00  0.00    +0.000 A 
ATOM     19  C15 UNL     1     156.375 160.324 172.419  0.00  0.00    +0.000 A 
ATOM     20  C16 UNL     1     156.205 158.949 172.348  0.00  0.00    +0.000 A 
ATOM     21  C17 UNL     1     156.855 158.241 171.354  0.00  0.00    +0.000 A 
ENDBRANCH  15  16
ENDBRANCH  14  15
ENDBRANCH   3  14
TORSDOF 6
ENDMDL
MODEL 8
REMARK VINA RESULT:      -5.1      4.860      7.403
REMARK  Name = ./3D_structures\o71_MMV124656_3D.pdb
REMARK  7 active torsions:
REMARK  status: ('A' for Active; 'I' for Inactive)
REMARK    1  A    between atoms: C1_1  and  C2_2
REMARK    2  A    between atoms: C2_2  and  O1_3
REMARK    3  A    between atoms: O1_3  and  C3_4
REMARK    4  A    between atoms: C6_7  and  C9_10
REMARK    5  A    between atoms: N1_12  and  C10_13
REMARK    6  A    between atoms: C10_13  and  C11_14
REMARK    7  A    between atoms: C11_14  and  C12_15
REMARK                            x       y       z     vdW  Elec       q    Type
REMARK                         _______ _______ _______ _____ _____    ______ ____
ROOT
ATOM      1  C9  UNL     1     157.376 156.329 165.228  0.00  0.00    +0.000 C 
ATOM      2  O2  UNL     1     158.493 156.881 164.973  0.00  0.00    +0.000 OA
ATOM      3  N1  UNL     1     156.984 155.232 164.414  0.00  0.00    +0.000 N 
ATOM      4  H10 UNL     1     156.080 154.776 164.612  0.00  0.00    +0.000 HD
ENDROOT
BRANCH   1   8
ATOM      5  C3  UNL     1     155.112 157.765 168.496  0.00  0.00    +0.000 A 
ATOM      6  C4  UNL     1     154.630 157.937 167.217  0.00  0.00    +0.000 A 
ATOM      7  C5  UNL     1     155.371 157.468 166.147  0.00  0.00    +0.000 A 
ATOM      8  C6  UNL     1     156.564 156.839 166.321  0.00  0.00    +0.000 A 
ATOM      9  C7  UNL     1     157.013 156.684 167.612  0.00  0.00    +0.000 A 
ATOM     10  C8  UNL     1     156.315 157.133 168.710  0.00  0.00    +0.000 A 
BRANCH   5  11
ATOM     11  O1  UNL     1     154.359 158.240 169.555  0.00  0.00    +0.000 OA
BRANCH  11  13
ATOM     12  C1  UNL     1     154.967 160.423 170.202  0.00  0.00    +0.000 C 
ATOM     13  C2  UNL     1     155.015 158.945 170.591  0.00  0.00    +0.000 C 
ENDBRANCH  11  13
ENDBRANCH   5  11
ENDBRANCH   1   8
BRANCH   3  14
ATOM     14  C10 UNL     1     157.871 154.811 163.355  0.00  0.00    +0.000 C 
BRANCH  14  15
ATOM     15  C11 UNL     1     157.453 153.580 162.634  0.00  0.00    +0.000 C 
BRANCH  15  16
ATOM     16  C12 UNL     1     157.597 152.358 163.454  0.00  0.00    +0.000 A 
ATOM     17  C13 UNL     1     156.564 151.448 163.464  0.00  0.00    +0.000 A 
ATOM     18  C14 UNL     1     156.640 150.269 164.214  0.00  0.00    +0.000 A 
ATOM     19  C15 UNL     1     157.768 150.028 164.948  0.00  0.00    +0.000 A 
ATOM     20  C16 UNL     1     158.821 150.931 164.954  0.00  0.00    +0.000 A 
ATOM     21  C17 UNL     1     158.721 152.088 164.203  0.00  0.00    +0.000 A 
ENDBRANCH  15  16
ENDBRANCH  14  15
ENDBRANCH   3  14
TORSDOF 6
ENDMDL
MODEL 9
REMARK VINA RESULT:      -5.0      5.308      7.912
REMARK  Name = ./3D_structures\o71_MMV124656_3D.pdb
REMARK  7 active torsions:
REMARK  status: ('A' for Active; 'I' for Inactive)
REMARK    1  A    between atoms: C1_1  and  C2_2
REMARK    2  A    between atoms: C2_2  and  O1_3
REMARK    3  A    between atoms: O1_3  and  C3_4
REMARK    4  A    between atoms: C6_7  and  C9_10
REMARK    5  A    between atoms: N1_12  and  C10_13
REMARK    6  A    between atoms: C10_13  and  C11_14
REMARK    7  A    between atoms: C11_14  and  C12_15
REMARK                            x       y       z     vdW  Elec       q    Type
REMARK                         _______ _______ _______ _____ _____    ______ ____
ROOT
ATOM      1  C9  UNL     1     160.998 157.857 166.398  0.00  0.00    +0.000 C 
ATOM      2  O2  UNL     1     161.408 158.035 165.207  0.00  0.00    +0.000 OA
ATOM      3  N1  UNL     1     161.964 157.898 167.439  0.00  0.00    +0.000 N 
ATOM      4  H10 UNL     1     161.643 157.756 168.409  0.00  0.00    +0.000 HD
ENDROOT
BRANCH   1   8
ATOM      5  C3  UNL     1     156.881 157.095 166.973  0.00  0.00    +0.000 A 
ATOM      6  C4  UNL     1     157.541 157.920 167.857  0.00  0.00    +0.000 A 
ATOM      7  C5  UNL     1     158.889 158.170 167.669  0.00  0.00    +0.000 A 
ATOM      8  C6  UNL     1     159.583 157.623 166.635  0.00  0.00    +0.000 A 
ATOM      9  C7  UNL     1     158.891 156.804 165.772  0.00  0.00    +0.000 A 
ATOM     10  C8  UNL     1     157.551 156.524 165.916  0.00  0.00    +0.000 A 
BRANCH   5  11
ATOM     11  O1  UNL     1     155.533 156.855 167.175  0.00  0.00    +0.000 OA
BRANCH  11  13
ATOM     12  C1  UNL     1     154.318 158.615 166.184  0.00  0.00    +0.000 C 
ATOM     13  C2  UNL     1     154.692 157.944 167.505  0.00  0.00    +0.000 C 
ENDBRANCH  11  13
ENDBRANCH   5  11
ENDBRANCH   1   8
BRANCH   3  14
ATOM     14  C10 UNL     1     163.344 158.139 167.087  0.00  0.00    +0.000 C 
BRANCH  14  15
ATOM     15  C11 UNL     1     163.822 159.528 167.319  0.00  0.00    +0.000 C 
BRANCH  15  16
ATOM     16  C12 UNL     1     164.770 159.626 168.451  0.00  0.00    +0.000 A 
ATOM     17  C13 UNL     1     164.866 160.823 169.123  0.00  0.00    +0.000 A 
ATOM     18  C14 UNL     1     165.738 160.981 170.207  0.00  0.00    +0.000 A 
ATOM     19  C15 UNL     1     166.505 159.916 170.593  0.00  0.00    +0.000 A 
ATOM     20  C16 UNL     1     166.425 158.701 169.930  0.00  0.00    +0.000 A 
ATOM     21  C17 UNL     1     165.554 158.572 168.864  0.00  0.00    +0.000 A 
ENDBRANCH  15  16
ENDBRANCH  14  15
ENDBRANCH   3  14
TORSDOF 6
ENDMDL
