MODEL 1
REMARK VINA RESULT:      -5.3      0.000      0.000
REMARK  Name = ./3D_structures\o74_MMV108465_3D.pdb
REMARK  4 active torsions:
REMARK  status: ('A' for Active; 'I' for Inactive)
REMARK    1  A    between atoms: C1_1  and  C2_2
REMARK    2  A    between atoms: C2_2  and  C3_3
REMARK    3  A    between atoms: C2_2  and  N1_4
REMARK    4  A    between atoms: N5_13  and  C9_14
REMARK                            x       y       z     vdW  Elec       q    Type
REMARK                         _______ _______ _______ _____ _____    ______ ____
ROOT
ATOM      1  N1  UNL     1     148.854 165.581 170.565  0.00  0.00    +0.000 N 
ATOM      2  C4  UNL     1     148.475 165.446 169.208  0.00  0.00    +0.000 C 
ATOM      3  N2  UNL     1     149.311 165.758 168.206  0.00  0.00    +0.000 NA
ATOM      4  C5  UNL     1     148.943 165.628 166.902  0.00  0.00    +0.000 C 
ATOM      5  N3  UNL     1     147.700 165.170 166.614  0.00  0.00    +0.000 NA
ATOM      6  C6  UNL     1     146.815 164.841 167.565  0.00  0.00    +0.000 A 
ATOM      7  C7  UNL     1     147.222 164.986 168.888  0.00  0.00    +0.000 A 
ATOM      8  C8  UNL     1     146.123 164.578 169.628  0.00  0.00    +0.000 A 
ATOM      9  N4  UNL     1     145.155 164.225 168.759  0.00  0.00    +0.000 NA
ATOM     10  N5  UNL     1     145.558 164.377 167.528  0.00  0.00    +0.000 N 
ATOM     11  H8  UNL     1     148.186 165.332 171.315  0.00  0.00    +0.000 HD
ENDROOT
BRANCH  10  12
ATOM     12  C9  UNL     1     144.753 164.085 166.383  0.00  0.00    +0.000 A 
ATOM     13  C10 UNL     1     145.076 162.974 165.632  0.00  0.00    +0.000 A 
ATOM     14  C11 UNL     1     144.341 162.621 164.500  0.00  0.00    +0.000 A 
ATOM     15  C12 UNL     1     143.263 163.389 164.110  0.00  0.00    +0.000 A 
ATOM     16 CL1  UNL     1     142.306 162.990 162.698  0.00  0.00    +0.000 Cl
ATOM     17  C13 UNL     1     142.957 164.503 164.883  0.00  0.00    +0.000 A 
ATOM     18  C14 UNL     1     143.679 164.857 166.001  0.00  0.00    +0.000 A 
ENDBRANCH  10  12
BRANCH   1  20
ATOM     19  C1  UNL     1     150.118 167.511 171.316  0.00  0.00    +0.000 C 
ATOM     20  C2  UNL     1     150.178 166.067 170.911  0.00  0.00    +0.000 C 
ATOM     21  C3  UNL     1     150.793 165.191 171.965  0.00  0.00    +0.000 C 
ENDBRANCH   1  20
TORSDOF 2
ENDMDL
MODEL 2
REMARK VINA RESULT:      -5.2      3.569      7.373
REMARK  Name = ./3D_structures\o74_MMV108465_3D.pdb
REMARK  4 active torsions:
REMARK  status: ('A' for Active; 'I' for Inactive)
REMARK    1  A    between atoms: C1_1  and  C2_2
REMARK    2  A    between atoms: C2_2  and  C3_3
REMARK    3  A    between atoms: C2_2  and  N1_4
REMARK    4  A    between atoms: N5_13  and  C9_14
REMARK                            x       y       z     vdW  Elec       q    Type
REMARK                         _______ _______ _______ _____ _____    ______ ____
ROOT
ATOM      1  N1  UNL     1     145.205 162.869 165.295  0.00  0.00    +0.000 N 
ATOM      2  C4  UNL     1     145.849 164.041 165.758  0.00  0.00    +0.000 C 
ATOM      3  N2  UNL     1     145.566 165.251 165.252  0.00  0.00    +0.000 NA
ATOM      4  C5  UNL     1     146.188 166.376 165.700  0.00  0.00    +0.000 C 
ATOM      5  N3  UNL     1     147.116 166.266 166.682  0.00  0.00    +0.000 NA
ATOM      6  C6  UNL     1     147.446 165.090 167.232  0.00  0.00    +0.000 A 
ATOM      7  C7  UNL     1     146.793 163.959 166.752  0.00  0.00    +0.000 A 
ATOM      8  C8  UNL     1     147.329 162.916 167.492  0.00  0.00    +0.000 A 
ATOM      9  N4  UNL     1     148.235 163.443 168.340  0.00  0.00    +0.000 NA
ATOM     10  N5  UNL     1     148.312 164.737 168.193  0.00  0.00    +0.000 N 
ATOM     11  H8  UNL     1     145.445 161.951 165.707  0.00  0.00    +0.000 HD
ENDROOT
BRANCH  10  12
ATOM     12  C9  UNL     1     149.186 165.576 168.953  0.00  0.00    +0.000 A 
ATOM     13  C10 UNL     1     149.025 165.604 170.322  0.00  0.00    +0.000 A 
ATOM     14  C11 UNL     1     149.837 166.397 171.134  0.00  0.00    +0.000 A 
ATOM     15  C12 UNL     1     150.827 167.175 170.570  0.00  0.00    +0.000 A 
ATOM     16 CL1  UNL     1     151.874 168.188 171.543  0.00  0.00    +0.000 Cl
ATOM     17  C13 UNL     1     150.969 167.129 169.188  0.00  0.00    +0.000 A 
ATOM     18  C14 UNL     1     150.171 166.349 168.382  0.00  0.00    +0.000 A 
ENDBRANCH  10  12
BRANCH   1  20
ATOM     19  C1  UNL     1     144.458 161.903 163.198  0.00  0.00    +0.000 C 
ATOM     20  C2  UNL     1     144.205 162.949 164.244  0.00  0.00    +0.000 C 
ATOM     21  C3  UNL     1     142.826 162.864 164.833  0.00  0.00    +0.000 C 
ENDBRANCH   1  20
TORSDOF 2
ENDMDL
MODEL 3
REMARK VINA RESULT:      -5.2      3.603      7.529
REMARK  Name = ./3D_structures\o74_MMV108465_3D.pdb
REMARK  4 active torsions:
REMARK  status: ('A' for Active; 'I' for Inactive)
REMARK    1  A    between atoms: C1_1  and  C2_2
REMARK    2  A    between atoms: C2_2  and  C3_3
REMARK    3  A    between atoms: C2_2  and  N1_4
REMARK    4  A    between atoms: N5_13  and  C9_14
REMARK                            x       y       z     vdW  Elec       q    Type
REMARK                         _______ _______ _______ _____ _____    ______ ____
ROOT
ATOM      1  N1  UNL     1     145.168 164.449 166.844  0.00  0.00    +0.000 N 
ATOM      2  C4  UNL     1     146.475 164.921 167.112  0.00  0.00    +0.000 C 
ATOM      3  N2  UNL     1     147.286 165.354 166.135  0.00  0.00    +0.000 NA
ATOM      4  C5  UNL     1     148.543 165.807 166.397  0.00  0.00    +0.000 C 
ATOM      5  N3  UNL     1     148.981 165.818 167.680  0.00  0.00    +0.000 NA
ATOM      6  C6  UNL     1     148.225 165.399 168.703  0.00  0.00    +0.000 A 
ATOM      7  C7  UNL     1     146.945 164.943 168.402  0.00  0.00    +0.000 A 
ATOM      8  C8  UNL     1     146.413 164.586 169.631  0.00  0.00    +0.000 A 
ATOM      9  N4  UNL     1     147.351 164.832 170.568  0.00  0.00    +0.000 NA
ATOM     10  N5  UNL     1     148.433 165.317 170.025  0.00  0.00    +0.000 N 
ATOM     11  H8  UNL     1     144.567 164.122 167.619  0.00  0.00    +0.000 HD
ENDROOT
BRANCH  10  12
ATOM     12  C9  UNL     1     149.603 165.678 170.763  0.00  0.00    +0.000 A 
ATOM     13  C10 UNL     1     150.455 164.668 171.158  0.00  0.00    +0.000 A 
ATOM     14  C11 UNL     1     151.617 164.936 171.883  0.00  0.00    +0.000 A 
ATOM     15  C12 UNL     1     151.936 166.236 172.218  0.00  0.00    +0.000 A 
ATOM     16 CL1  UNL     1     153.382 166.628 173.126  0.00  0.00    +0.000 Cl
ATOM     17  C13 UNL     1     151.062 167.236 171.809  0.00  0.00    +0.000 A 
ATOM     18  C14 UNL     1     149.914 166.978 171.095  0.00  0.00    +0.000 A 
ENDBRANCH  10  12
BRANCH   1  20
ATOM     19  C1  UNL     1     144.702 163.026 164.934  0.00  0.00    +0.000 C 
ATOM     20  C2  UNL     1     144.664 164.423 165.481  0.00  0.00    +0.000 C 
ATOM     21  C3  UNL     1     143.294 165.035 165.423  0.00  0.00    +0.000 C 
ENDBRANCH   1  20
TORSDOF 2
ENDMDL
MODEL 4
REMARK VINA RESULT:      -5.2      5.789      7.812
REMARK  Name = ./3D_structures\o74_MMV108465_3D.pdb
REMARK  4 active torsions:
REMARK  status: ('A' for Active; 'I' for Inactive)
REMARK    1  A    between atoms: C1_1  and  C2_2
REMARK    2  A    between atoms: C2_2  and  C3_3
REMARK    3  A    between atoms: C2_2  and  N1_4
REMARK    4  A    between atoms: N5_13  and  C9_14
REMARK                            x       y       z     vdW  Elec       q    Type
REMARK                         _______ _______ _______ _____ _____    ______ ____
ROOT
ATOM      1  N1  UNL     1     147.762 164.596 167.601  0.00  0.00    +0.000 N 
ATOM      2  C4  UNL     1     148.279 163.279 167.572  0.00  0.00    +0.000 C 
ATOM      3  N2  UNL     1     147.489 162.205 167.723  0.00  0.00    +0.000 NA
ATOM      4  C5  UNL     1     147.990 160.940 167.696  0.00  0.00    +0.000 C 
ATOM      5  N3  UNL     1     149.322 160.766 167.511  0.00  0.00    +0.000 NA
ATOM      6  C6  UNL     1     150.168 161.793 167.355  0.00  0.00    +0.000 A 
ATOM      7  C7  UNL     1     149.624 163.073 167.388  0.00  0.00    +0.000 A 
ATOM      8  C8  UNL     1     150.714 163.911 167.203  0.00  0.00    +0.000 A 
ATOM      9  N4  UNL     1     151.807 163.133 167.075  0.00  0.00    +0.000 NA
ATOM     10  N5  UNL     1     151.492 161.870 167.163  0.00  0.00    +0.000 N 
ATOM     11  H8  UNL     1     148.398 165.404 167.481  0.00  0.00    +0.000 HD
ENDROOT
BRANCH  10  12
ATOM     12  C9  UNL     1     152.439 160.803 167.065  0.00  0.00    +0.000 A 
ATOM     13  C10 UNL     1     152.726 160.087 168.209  0.00  0.00    +0.000 A 
ATOM     14  C11 UNL     1     153.639 159.032 168.197  0.00  0.00    +0.000 A 
ATOM     15  C12 UNL     1     154.276 158.684 167.024  0.00  0.00    +0.000 A 
ATOM     16 CL1  UNL     1     155.430 157.367 166.954  0.00  0.00    +0.000 Cl
ATOM     17  C13 UNL     1     153.971 159.420 165.886  0.00  0.00    +0.000 A 
ATOM     18  C14 UNL     1     153.071 160.463 165.891  0.00  0.00    +0.000 A 
ENDBRANCH  10  12
BRANCH   1  20
ATOM     19  C1  UNL     1     146.057 165.187 169.223  0.00  0.00    +0.000 C 
ATOM     20  C2  UNL     1     146.340 164.821 167.795  0.00  0.00    +0.000 C 
ATOM     21  C3  UNL     1     145.839 165.847 166.819  0.00  0.00    +0.000 C 
ENDBRANCH   1  20
TORSDOF 2
ENDMDL
MODEL 5
REMARK VINA RESULT:      -5.1     11.903     14.357
REMARK  Name = ./3D_structures\o74_MMV108465_3D.pdb
REMARK  4 active torsions:
REMARK  status: ('A' for Active; 'I' for Inactive)
REMARK    1  A    between atoms: C1_1  and  C2_2
REMARK    2  A    between atoms: C2_2  and  C3_3
REMARK    3  A    between atoms: C2_2  and  N1_4
REMARK    4  A    between atoms: N5_13  and  C9_14
REMARK                            x       y       z     vdW  Elec       q    Type
REMARK                         _______ _______ _______ _____ _____    ______ ____
ROOT
ATOM      1  N1  UNL     1     158.334 156.281 165.115  0.00  0.00    +0.000 N 
ATOM      2  C4  UNL     1     157.497 156.852 166.103  0.00  0.00    +0.000 C 
ATOM      3  N2  UNL     1     156.165 156.692 166.081  0.00  0.00    +0.000 NA
ATOM      4  C5  UNL     1     155.363 157.244 167.033  0.00  0.00    +0.000 C 
ATOM      5  N3  UNL     1     155.930 157.971 168.027  0.00  0.00    +0.000 NA
ATOM      6  C6  UNL     1     157.252 158.170 168.109  0.00  0.00    +0.000 A 
ATOM      7  C7  UNL     1     158.044 157.593 167.121  0.00  0.00    +0.000 A 
ATOM      8  C8  UNL     1     159.336 157.962 167.462  0.00  0.00    +0.000 A 
ATOM      9  N4  UNL     1     159.264 158.707 168.583  0.00  0.00    +0.000 NA
ATOM     10  N5  UNL     1     158.027 158.835 168.977  0.00  0.00    +0.000 N 
ATOM     11  H8  UNL     1     159.357 156.422 165.160  0.00  0.00    +0.000 HD
ENDROOT
BRANCH  10  12
ATOM     12  C9  UNL     1     157.632 159.570 170.138  0.00  0.00    +0.000 A 
ATOM     13  C10 UNL     1     157.109 158.866 171.202  0.00  0.00    +0.000 A 
ATOM     14  C11 UNL     1     156.699 159.509 172.371  0.00  0.00    +0.000 A 
ATOM     15  C12 UNL     1     156.814 160.879 172.481  0.00  0.00    +0.000 A 
ATOM     16 CL1  UNL     1     156.315 161.736 173.925  0.00  0.00    +0.000 Cl
ATOM     17  C13 UNL     1     157.344 161.567 171.395  0.00  0.00    +0.000 A 
ATOM     18  C14 UNL     1     157.750 160.938 170.239  0.00  0.00    +0.000 A 
ENDBRANCH  10  12
BRANCH   1  20
ATOM     19  C1  UNL     1     158.139 156.077 162.705  0.00  0.00    +0.000 C 
ATOM     20  C2  UNL     1     157.761 155.495 164.035  0.00  0.00    +0.000 C 
ATOM     21  C3  UNL     1     158.161 154.054 164.176  0.00  0.00    +0.000 C 
ENDBRANCH   1  20
TORSDOF 2
ENDMDL
MODEL 6
REMARK VINA RESULT:      -5.1      4.220      7.485
REMARK  Name = ./3D_structures\o74_MMV108465_3D.pdb
REMARK  4 active torsions:
REMARK  status: ('A' for Active; 'I' for Inactive)
REMARK    1  A    between atoms: C1_1  and  C2_2
REMARK    2  A    between atoms: C2_2  and  C3_3
REMARK    3  A    between atoms: C2_2  and  N1_4
REMARK    4  A    between atoms: N5_13  and  C9_14
REMARK                            x       y       z     vdW  Elec       q    Type
REMARK                         _______ _______ _______ _____ _____    ______ ____
ROOT
ATOM      1  N1  UNL     1     146.552 165.501 166.576  0.00  0.00    +0.000 N 
ATOM      2  C4  UNL     1     146.960 164.996 167.834  0.00  0.00    +0.000 C 
ATOM      3  N2  UNL     1     146.186 165.102 168.924  0.00  0.00    +0.000 NA
ATOM      4  C5  UNL     1     146.583 164.616 170.132  0.00  0.00    +0.000 C 
ATOM      5  N3  UNL     1     147.792 164.010 170.230  0.00  0.00    +0.000 NA
ATOM      6  C6  UNL     1     148.615 163.871 169.182  0.00  0.00    +0.000 A 
ATOM      7  C7  UNL     1     148.180 164.379 167.962  0.00  0.00    +0.000 A 
ATOM      8  C8  UNL     1     149.216 164.094 167.086  0.00  0.00    +0.000 A 
ATOM      9  N4  UNL     1     150.178 163.461 167.786  0.00  0.00    +0.000 NA
ATOM     10  N5  UNL     1     149.829 163.322 169.036  0.00  0.00    +0.000 N 
ATOM     11  H8  UNL     1     147.172 165.403 165.754  0.00  0.00    +0.000 HD
ENDROOT
BRANCH  10  12
ATOM     12  C9  UNL     1     150.643 162.689 170.026  0.00  0.00    +0.000 A 
ATOM     13  C10 UNL     1     150.687 161.310 170.041  0.00  0.00    +0.000 A 
ATOM     14  C11 UNL     1     151.456 160.616 170.976  0.00  0.00    +0.000 A 
ATOM     15  C12 UNL     1     152.195 161.309 171.912  0.00  0.00    +0.000 A 
ATOM     16 CL1  UNL     1     153.178 160.488 173.107  0.00  0.00    +0.000 Cl
ATOM     17  C13 UNL     1     152.134 162.698 171.877  0.00  0.00    +0.000 A 
ATOM     18  C14 UNL     1     151.377 163.388 170.957  0.00  0.00    +0.000 A 
ENDBRANCH  10  12
BRANCH   1  20
ATOM     19  C1  UNL     1     145.408 167.444 165.678  0.00  0.00    +0.000 C 
ATOM     20  C2  UNL     1     145.262 166.155 166.434  0.00  0.00    +0.000 C 
ATOM     21  C3  UNL     1     144.272 165.218 165.803  0.00  0.00    +0.000 C 
ENDBRANCH   1  20
TORSDOF 2
ENDMDL
MODEL 7
REMARK VINA RESULT:      -5.0     11.816     13.361
REMARK  Name = ./3D_structures\o74_MMV108465_3D.pdb
REMARK  4 active torsions:
REMARK  status: ('A' for Active; 'I' for Inactive)
REMARK    1  A    between atoms: C1_1  and  C2_2
REMARK    2  A    between atoms: C2_2  and  C3_3
REMARK    3  A    between atoms: C2_2  and  N1_4
REMARK    4  A    between atoms: N5_13  and  C9_14
REMARK                            x       y       z     vdW  Elec       q    Type
REMARK                         _______ _______ _______ _____ _____    ______ ____
ROOT
ATOM      1  N1  UNL     1     156.268 159.079 170.503  0.00  0.00    +0.000 N 
ATOM      2  C4  UNL     1     157.168 158.689 169.483  0.00  0.00    +0.000 C 
ATOM      3  N2  UNL     1     158.489 158.898 169.587  0.00  0.00    +0.000 NA
ATOM      4  C5  UNL     1     159.352 158.522 168.603  0.00  0.00    +0.000 C 
ATOM      5  N3  UNL     1     158.858 157.920 167.493  0.00  0.00    +0.000 NA
ATOM      6  C6  UNL     1     157.551 157.682 167.324  0.00  0.00    +0.000 A 
ATOM      7  C7  UNL     1     156.696 158.078 168.347  0.00  0.00    +0.000 A 
ATOM      8  C8  UNL     1     155.436 157.709 167.900  0.00  0.00    +0.000 A 
ATOM      9  N4  UNL     1     155.586 157.136 166.689  0.00  0.00    +0.000 NA
ATOM     10  N5  UNL     1     156.842 157.115 166.338  0.00  0.00    +0.000 N 
ATOM     11  H8  UNL     1     155.254 158.903 170.392  0.00  0.00    +0.000 HD
ENDROOT
BRANCH  10  12
ATOM     12  C9  UNL     1     157.316 156.569 165.103  0.00  0.00    +0.000 A 
ATOM     13  C10 UNL     1     157.756 157.448 164.136  0.00  0.00    +0.000 A 
ATOM     14  C11 UNL     1     158.232 156.995 162.904  0.00  0.00    +0.000 A 
ATOM     15  C12 UNL     1     158.271 155.643 162.634  0.00  0.00    +0.000 A 
ATOM     16 CL1  UNL     1     158.860 155.022 161.106  0.00  0.00    +0.000 Cl
ATOM     17  C13 UNL     1     157.822 154.778 163.625  0.00  0.00    +0.000 A 
ATOM     18  C14 UNL     1     157.350 155.218 164.842  0.00  0.00    +0.000 A 
ENDBRANCH  10  12
BRANCH   1  20
ATOM     19  C1  UNL     1     156.850 161.210 171.507  0.00  0.00    +0.000 C 
ATOM     20  C2  UNL     1     156.761 159.725 171.707  0.00  0.00    +0.000 C 
ATOM     21  C3  UNL     1     155.909 159.346 172.885  0.00  0.00    +0.000 C 
ENDBRANCH   1  20
TORSDOF 2
ENDMDL
MODEL 8
REMARK VINA RESULT:      -5.0     10.032     12.399
REMARK  Name = ./3D_structures\o74_MMV108465_3D.pdb
REMARK  4 active torsions:
REMARK  status: ('A' for Active; 'I' for Inactive)
REMARK    1  A    between atoms: C1_1  and  C2_2
REMARK    2  A    between atoms: C2_2  and  C3_3
REMARK    3  A    between atoms: C2_2  and  N1_4
REMARK    4  A    between atoms: N5_13  and  C9_14
REMARK                            x       y       z     vdW  Elec       q    Type
REMARK                         _______ _______ _______ _____ _____    ______ ____
ROOT
ATOM      1  N1  UNL     1     154.471 160.449 172.640  0.00  0.00    +0.000 N 
ATOM      2  C4  UNL     1     154.685 160.146 171.274  0.00  0.00    +0.000 C 
ATOM      3  N2  UNL     1     153.831 160.542 170.319  0.00  0.00    +0.000 NA
ATOM      4  C5  UNL     1     154.040 160.248 169.006  0.00  0.00    +0.000 C 
ATOM      5  N3  UNL     1     155.142 159.537 168.661  0.00  0.00    +0.000 NA
ATOM      6  C6  UNL     1     156.035 159.110 169.564  0.00  0.00    +0.000 A 
ATOM      7  C7  UNL     1     155.792 159.427 170.896  0.00  0.00    +0.000 A 
ATOM      8  C8  UNL     1     156.860 158.866 171.580  0.00  0.00    +0.000 A 
ATOM      9  N4  UNL     1     157.656 158.268 170.671  0.00  0.00    +0.000 NA
ATOM     10  N5  UNL     1     157.173 158.408 169.467  0.00  0.00    +0.000 N 
ATOM     11  H8  UNL     1     155.149 160.129 173.353  0.00  0.00    +0.000 HD
ENDROOT
BRANCH  10  12
ATOM     12  C9  UNL     1     157.795 157.882 168.291  0.00  0.00    +0.000 A 
ATOM     13  C10 UNL     1     157.110 156.926 167.572  0.00  0.00    +0.000 A 
ATOM     14  C11 UNL     1     157.648 156.362 166.414  0.00  0.00    +0.000 A 
ATOM     15  C12 UNL     1     158.891 156.760 165.966  0.00  0.00    +0.000 A 
ATOM     16 CL1  UNL     1     159.612 156.085 164.519  0.00  0.00    +0.000 Cl
ATOM     17  C13 UNL     1     159.561 157.725 166.709  0.00  0.00    +0.000 A 
ATOM     18  C14 UNL     1     159.036 158.285 167.852  0.00  0.00    +0.000 A 
ENDBRANCH  10  12
BRANCH   1  20
ATOM     19  C1  UNL     1     152.290 160.311 173.697  0.00  0.00    +0.000 C 
ATOM     20  C2  UNL     1     153.302 161.209 173.047  0.00  0.00    +0.000 C 
ATOM     21  C3  UNL     1     153.710 162.358 173.925  0.00  0.00    +0.000 C 
ENDBRANCH   1  20
TORSDOF 2
ENDMDL
MODEL 9
REMARK VINA RESULT:      -5.0     11.828     14.201
REMARK  Name = ./3D_structures\o74_MMV108465_3D.pdb
REMARK  4 active torsions:
REMARK  status: ('A' for Active; 'I' for Inactive)
REMARK    1  A    between atoms: C1_1  and  C2_2
REMARK    2  A    between atoms: C2_2  and  C3_3
REMARK    3  A    between atoms: C2_2  and  N1_4
REMARK    4  A    between atoms: N5_13  and  C9_14
REMARK                            x       y       z     vdW  Elec       q    Type
REMARK                         _______ _______ _______ _____ _____    ______ ____
ROOT
ATOM      1  N1  UNL     1     157.791 156.386 163.912  0.00  0.00    +0.000 N 
ATOM      2  C4  UNL     1     158.119 156.966 165.161  0.00  0.00    +0.000 C 
ATOM      3  N2  UNL     1     159.371 157.347 165.456  0.00  0.00    +0.000 NA
ATOM      4  C5  UNL     1     159.684 157.904 166.659  0.00  0.00    +0.000 C 
ATOM      5  N3  UNL     1     158.701 158.074 167.577  0.00  0.00    +0.000 NA
ATOM      6  C6  UNL     1     157.432 157.715 167.349  0.00  0.00    +0.000 A 
ATOM      7  C7  UNL     1     157.145 157.149 166.110  0.00  0.00    +0.000 A 
ATOM      8  C8  UNL     1     155.784 156.886 166.163  0.00  0.00    +0.000 A 
ATOM      9  N4  UNL     1     155.339 157.286 167.371  0.00  0.00    +0.000 NA
ATOM     10  N5  UNL     1     156.312 157.781 168.084  0.00  0.00    +0.000 N 
ATOM     11  H8  UNL     1     156.816 156.103 163.715  0.00  0.00    +0.000 HD
ENDROOT
BRANCH  10  12
ATOM     12  C9  UNL     1     156.151 158.289 169.411  0.00  0.00    +0.000 A 
ATOM     13  C10 UNL     1     155.105 159.157 169.647  0.00  0.00    +0.000 A 
ATOM     14  C11 UNL     1     154.880 159.697 170.914  0.00  0.00    +0.000 A 
ATOM     15  C12 UNL     1     155.711 159.365 171.964  0.00  0.00    +0.000 A 
ATOM     16 CL1  UNL     1     155.472 160.014 173.573  0.00  0.00    +0.000 Cl
ATOM     17  C13 UNL     1     156.758 158.489 171.700  0.00  0.00    +0.000 A 
ATOM     18  C14 UNL     1     156.986 157.953 170.453  0.00  0.00    +0.000 A 
ENDBRANCH  10  12
BRANCH   1  20
ATOM     19  C1  UNL     1     159.287 154.764 162.904  0.00  0.00    +0.000 C 
ATOM     20  C2  UNL     1     158.817 156.190 162.903  0.00  0.00    +0.000 C 
ATOM     21  C3  UNL     1     158.316 156.638 161.560  0.00  0.00    +0.000 C 
ENDBRANCH   1  20
TORSDOF 2
ENDMDL
