MODEL 1
REMARK VINA RESULT:      -5.7      0.000      0.000
REMARK  Name = ./3D_structures\o75_MMV1480967_3D.pdb
REMARK  5 active torsions:
REMARK  status: ('A' for Active; 'I' for Inactive)
REMARK    1  A    between atoms: C1_1  and  O1_2
REMARK    2  A    between atoms: O1_2  and  C2_3
REMARK    3  A    between atoms: C8_12  and  C14_19
REMARK    4  A    between atoms: N1_14  and  C10_15
REMARK    5  A    between atoms: C14_19  and  O4_21
REMARK                            x       y       z     vdW  Elec       q    Type
REMARK                         _______ _______ _______ _____ _____    ______ ____
ROOT
ATOM      1  C2  UNL     1     147.525 162.688 167.789  0.00  0.00    +0.000 A 
ATOM      2  C3  UNL     1     148.909 162.727 167.845  0.00  0.00    +0.000 A 
ATOM      3  F1  UNL     1     149.548 161.638 168.367  0.00  0.00    +0.000 F 
ATOM      4  C4  UNL     1     149.653 163.793 167.403  0.00  0.00    +0.000 A 
ATOM      5  F2  UNL     1     151.015 163.788 167.476  0.00  0.00    +0.000 F 
ATOM      6  C5  UNL     1     148.975 164.860 166.889  0.00  0.00    +0.000 A 
ATOM      7  C6  UNL     1     147.602 164.839 166.829  0.00  0.00    +0.000 A 
ATOM      8  C7  UNL     1     147.012 165.963 166.301  0.00  0.00    +0.000 A 
ATOM      9  O2  UNL     1     147.715 166.950 165.891  0.00  0.00    +0.000 OA
ATOM     10  C8  UNL     1     145.654 166.010 166.220  0.00  0.00    +0.000 A 
ATOM     11  C9  UNL     1     144.922 164.907 166.682  0.00  0.00    +0.000 A 
ATOM     12  N1  UNL     1     145.484 163.815 167.193  0.00  0.00    +0.000 N 
ATOM     13  C13 UNL     1     146.830 163.758 167.275  0.00  0.00    +0.000 A 
ENDROOT
BRANCH  12  14
ATOM     14  C10 UNL     1     144.697 162.710 167.691  0.00  0.00    +0.000 C 
ATOM     15  C11 UNL     1     143.905 161.953 166.730  0.00  0.00    +0.000 C 
ATOM     16  C12 UNL     1     143.172 162.824 167.646  0.00  0.00    +0.000 C 
ENDBRANCH  12  14
BRANCH   1  18
ATOM     17  C1  UNL     1     147.046 160.280 167.676  0.00  0.00    +0.000 C 
ATOM     18  O1  UNL     1     146.883 161.561 168.260  0.00  0.00    +0.000 OA
ENDBRANCH   1  18
BRANCH  10  19
ATOM     19  C14 UNL     1     144.990 167.169 165.673  0.00  0.00    +0.000 C 
ATOM     20  O3  UNL     1     143.879 167.061 165.125  0.00  0.00    +0.000 OA
BRANCH  19  21
ATOM     21  O4  UNL     1     145.581 168.404 165.755  0.00  0.00    +0.000 OA
ATOM     22  H11 UNL     1     145.118 169.243 166.079  0.00  0.00    +0.000 HD
ENDBRANCH  19  21
ENDBRANCH  10  19
TORSDOF 4
ENDMDL
MODEL 2
REMARK VINA RESULT:      -5.6      9.127     11.818
REMARK  Name = ./3D_structures\o75_MMV1480967_3D.pdb
REMARK  5 active torsions:
REMARK  status: ('A' for Active; 'I' for Inactive)
REMARK    1  A    between atoms: C1_1  and  O1_2
REMARK    2  A    between atoms: O1_2  and  C2_3
REMARK    3  A    between atoms: C8_12  and  C14_19
REMARK    4  A    between atoms: N1_14  and  C10_15
REMARK    5  A    between atoms: C14_19  and  O4_21
REMARK                            x       y       z     vdW  Elec       q    Type
REMARK                         _______ _______ _______ _____ _____    ______ ____
ROOT
ATOM      1  C2  UNL     1     154.441 159.399 170.265  0.00  0.00    +0.000 A 
ATOM      2  C3  UNL     1     154.616 159.552 171.631  0.00  0.00    +0.000 A 
ATOM      3  F1  UNL     1     153.530 159.937 172.365  0.00  0.00    +0.000 F 
ATOM      4  C4  UNL     1     155.813 159.338 172.268  0.00  0.00    +0.000 A 
ATOM      5  F2  UNL     1     155.941 159.500 173.615  0.00  0.00    +0.000 F 
ATOM      6  C5  UNL     1     156.873 158.956 171.496  0.00  0.00    +0.000 A 
ATOM      7  C6  UNL     1     156.718 158.801 170.140  0.00  0.00    +0.000 A 
ATOM      8  C7  UNL     1     157.844 158.420 169.451  0.00  0.00    +0.000 A 
ATOM      9  O2  UNL     1     158.955 158.221 170.054  0.00  0.00    +0.000 OA
ATOM     10  C8  UNL     1     157.760 158.258 168.102  0.00  0.00    +0.000 A 
ATOM     11  C9  UNL     1     156.525 158.487 167.480  0.00  0.00    +0.000 A 
ATOM     12  N1  UNL     1     155.429 158.855 168.139  0.00  0.00    +0.000 N 
ATOM     13  C13 UNL     1     155.502 159.016 169.477  0.00  0.00    +0.000 A 
ENDROOT
BRANCH  12  14
ATOM     14  C10 UNL     1     154.180 159.116 167.461  0.00  0.00    +0.000 C 
ATOM     15  C11 UNL     1     154.119 158.861 166.027  0.00  0.00    +0.000 C 
ATOM     16  C12 UNL     1     154.126 160.261 166.448  0.00  0.00    +0.000 C 
ENDBRANCH  12  14
BRANCH   1  18
ATOM     17  C1  UNL     1     152.080 158.788 169.959  0.00  0.00    +0.000 C 
ATOM     18  O1  UNL     1     153.190 159.640 169.735  0.00  0.00    +0.000 OA
ENDBRANCH   1  18
BRANCH  10  19
ATOM     19  C14 UNL     1     158.917 157.858 167.336  0.00  0.00    +0.000 C 
ATOM     20  O3  UNL     1     158.807 157.044 166.404  0.00  0.00    +0.000 OA
BRANCH  19  21
ATOM     21  O4  UNL     1     160.151 158.379 167.632  0.00  0.00    +0.000 OA
ATOM     22  H11 UNL     1     160.923 158.433 166.981  0.00  0.00    +0.000 HD
ENDBRANCH  19  21
ENDBRANCH  10  19
TORSDOF 4
ENDMDL
MODEL 3
REMARK VINA RESULT:      -5.6      3.485      5.038
REMARK  Name = ./3D_structures\o75_MMV1480967_3D.pdb
REMARK  5 active torsions:
REMARK  status: ('A' for Active; 'I' for Inactive)
REMARK    1  A    between atoms: C1_1  and  O1_2
REMARK    2  A    between atoms: O1_2  and  C2_3
REMARK    3  A    between atoms: C8_12  and  C14_19
REMARK    4  A    between atoms: N1_14  and  C10_15
REMARK    5  A    between atoms: C14_19  and  O4_21
REMARK                            x       y       z     vdW  Elec       q    Type
REMARK                         _______ _______ _______ _____ _____    ______ ____
ROOT
ATOM      1  C2  UNL     1     151.281 163.016 166.299  0.00  0.00    +0.000 A 
ATOM      2  C3  UNL     1     151.523 164.028 165.384  0.00  0.00    +0.000 A 
ATOM      3  F1  UNL     1     152.550 163.846 164.502  0.00  0.00    +0.000 F 
ATOM      4  C4  UNL     1     150.787 165.186 165.327  0.00  0.00    +0.000 A 
ATOM      5  F2  UNL     1     151.059 166.157 164.410  0.00  0.00    +0.000 F 
ATOM      6  C5  UNL     1     149.771 165.327 166.228  0.00  0.00    +0.000 A 
ATOM      7  C6  UNL     1     149.518 164.333 167.143  0.00  0.00    +0.000 A 
ATOM      8  C7  UNL     1     148.479 164.572 168.011  0.00  0.00    +0.000 A 
ATOM      9  O2  UNL     1     147.798 165.654 167.948  0.00  0.00    +0.000 OA
ATOM     10  C8  UNL     1     148.182 163.631 168.948  0.00  0.00    +0.000 A 
ATOM     11  C9  UNL     1     148.954 162.461 168.983  0.00  0.00    +0.000 A 
ATOM     12  N1  UNL     1     149.960 162.221 168.147  0.00  0.00    +0.000 N 
ATOM     13  C13 UNL     1     150.261 163.147 167.213  0.00  0.00    +0.000 A 
ENDROOT
BRANCH  12  14
ATOM     14  C10 UNL     1     150.757 161.018 168.234  0.00  0.00    +0.000 C 
ATOM     15  C11 UNL     1     150.358 160.008 169.206  0.00  0.00    +0.000 C 
ATOM     16  C12 UNL     1     151.567 160.771 169.508  0.00  0.00    +0.000 C 
ENDBRANCH  12  14
BRANCH   1  18
ATOM     17  C1  UNL     1     152.089 160.985 165.174  0.00  0.00    +0.000 C 
ATOM     18  O1  UNL     1     152.084 161.894 166.261  0.00  0.00    +0.000 OA
ENDBRANCH   1  18
BRANCH  10  19
ATOM     19  C14 UNL     1     147.099 163.838 169.880  0.00  0.00    +0.000 C 
ATOM     20  O3  UNL     1     146.227 162.966 170.039  0.00  0.00    +0.000 OA
BRANCH  19  21
ATOM     21  O4  UNL     1     147.025 165.002 170.603  0.00  0.00    +0.000 OA
ATOM     22  H11 UNL     1     146.480 165.810 170.335  0.00  0.00    +0.000 HD
ENDBRANCH  19  21
ENDBRANCH  10  19
TORSDOF 4
ENDMDL
MODEL 4
REMARK VINA RESULT:      -5.6      8.503     11.130
REMARK  Name = ./3D_structures\o75_MMV1480967_3D.pdb
REMARK  5 active torsions:
REMARK  status: ('A' for Active; 'I' for Inactive)
REMARK    1  A    between atoms: C1_1  and  O1_2
REMARK    2  A    between atoms: O1_2  and  C2_3
REMARK    3  A    between atoms: C8_12  and  C14_19
REMARK    4  A    between atoms: N1_14  and  C10_15
REMARK    5  A    between atoms: C14_19  and  O4_21
REMARK                            x       y       z     vdW  Elec       q    Type
REMARK                         _______ _______ _______ _____ _____    ______ ____
ROOT
ATOM      1  C2  UNL     1     154.819 158.358 167.720  0.00  0.00    +0.000 A 
ATOM      2  C3  UNL     1     155.716 157.480 167.131  0.00  0.00    +0.000 A 
ATOM      3  F1  UNL     1     155.441 157.060 165.861  0.00  0.00    +0.000 F 
ATOM      4  C4  UNL     1     156.849 157.025 167.758  0.00  0.00    +0.000 A 
ATOM      5  F2  UNL     1     157.705 156.162 167.141  0.00  0.00    +0.000 F 
ATOM      6  C5  UNL     1     157.084 157.470 169.027  0.00  0.00    +0.000 A 
ATOM      7  C6  UNL     1     156.205 158.338 169.627  0.00  0.00    +0.000 A 
ATOM      8  C7  UNL     1     156.527 158.723 170.906  0.00  0.00    +0.000 A 
ATOM      9  O2  UNL     1     157.586 158.294 171.481  0.00  0.00    +0.000 OA
ATOM     10  C8  UNL     1     155.692 159.577 171.561  0.00  0.00    +0.000 A 
ATOM     11  C9  UNL     1     154.541 160.022 170.895  0.00  0.00    +0.000 A 
ATOM     12  N1  UNL     1     154.222 159.656 169.656  0.00  0.00    +0.000 N 
ATOM     13  C13 UNL     1     155.045 158.812 168.999  0.00  0.00    +0.000 A 
ENDROOT
BRANCH  12  14
ATOM     14  C10 UNL     1     153.010 160.108 169.013  0.00  0.00    +0.000 C 
ATOM     15  C11 UNL     1     152.097 160.938 169.790  0.00  0.00    +0.000 C 
ATOM     16  C12 UNL     1     151.671 159.566 169.518  0.00  0.00    +0.000 C 
ENDBRANCH  12  14
BRANCH   1  18
ATOM     17  C1  UNL     1     153.792 159.644 165.894  0.00  0.00    +0.000 C 
ATOM     18  O1  UNL     1     153.714 158.751 166.992  0.00  0.00    +0.000 OA
ENDBRANCH   1  18
BRANCH  10  19
ATOM     19  C14 UNL     1     155.989 160.009 172.905  0.00  0.00    +0.000 C 
ATOM     20  O3  UNL     1     155.390 159.514 173.876  0.00  0.00    +0.000 OA
BRANCH  19  21
ATOM     21  O4  UNL     1     156.942 160.972 173.124  0.00  0.00    +0.000 OA
ATOM     22  H11 UNL     1     157.178 161.706 172.470  0.00  0.00    +0.000 HD
ENDBRANCH  19  21
ENDBRANCH  10  19
TORSDOF 4
ENDMDL
MODEL 5
REMARK VINA RESULT:      -5.6      9.101     10.885
REMARK  Name = ./3D_structures\o75_MMV1480967_3D.pdb
REMARK  5 active torsions:
REMARK  status: ('A' for Active; 'I' for Inactive)
REMARK    1  A    between atoms: C1_1  and  O1_2
REMARK    2  A    between atoms: O1_2  and  C2_3
REMARK    3  A    between atoms: C8_12  and  C14_19
REMARK    4  A    between atoms: N1_14  and  C10_15
REMARK    5  A    between atoms: C14_19  and  O4_21
REMARK                            x       y       z     vdW  Elec       q    Type
REMARK                         _______ _______ _______ _____ _____    ______ ____
ROOT
ATOM      1  C2  UNL     1     155.724 158.051 169.007  0.00  0.00    +0.000 A 
ATOM      2  C3  UNL     1     157.080 157.791 168.885  0.00  0.00    +0.000 A 
ATOM      3  F1  UNL     1     157.474 156.983 167.856  0.00  0.00    +0.000 F 
ATOM      4  C4  UNL     1     158.026 158.301 169.739  0.00  0.00    +0.000 A 
ATOM      5  F2  UNL     1     159.351 158.019 169.581  0.00  0.00    +0.000 F 
ATOM      6  C5  UNL     1     157.588 159.102 170.754  0.00  0.00    +0.000 A 
ATOM      7  C6  UNL     1     156.247 159.369 170.890  0.00  0.00    +0.000 A 
ATOM      8  C7  UNL     1     155.906 160.181 171.946  0.00  0.00    +0.000 A 
ATOM      9  O2  UNL     1     156.797 160.652 172.735  0.00  0.00    +0.000 OA
ATOM     10  C8  UNL     1     154.593 160.478 172.143  0.00  0.00    +0.000 A 
ATOM     11  C9  UNL     1     153.649 159.939 171.256  0.00  0.00    +0.000 A 
ATOM     12  N1  UNL     1     153.970 159.154 170.232  0.00  0.00    +0.000 N 
ATOM     13  C13 UNL     1     155.270 158.856 170.027  0.00  0.00    +0.000 A 
ENDROOT
BRANCH  12  14
ATOM     14  C10 UNL     1     152.967 158.589 169.358  0.00  0.00    +0.000 C 
ATOM     15  C11 UNL     1     151.589 159.030 169.530  0.00  0.00    +0.000 C 
ATOM     16  C12 UNL     1     151.905 157.671 169.965  0.00  0.00    +0.000 C 
ENDBRANCH  12  14
BRANCH   1  18
ATOM     17  C1  UNL     1     154.802 157.898 166.734  0.00  0.00    +0.000 C 
ATOM     18  O1  UNL     1     154.864 157.486 168.088  0.00  0.00    +0.000 OA
ENDBRANCH   1  18
BRANCH  10  19
ATOM     19  C14 UNL     1     154.187 161.326 173.238  0.00  0.00    +0.000 C 
ATOM     20  O3  UNL     1     153.190 161.040 173.924  0.00  0.00    +0.000 OA
BRANCH  19  21
ATOM     21  O4  UNL     1     154.903 162.458 173.534  0.00  0.00    +0.000 OA
ATOM     22  H11 UNL     1     155.908 162.540 173.454  0.00  0.00    +0.000 HD
ENDBRANCH  19  21
ENDBRANCH  10  19
TORSDOF 4
ENDMDL
MODEL 6
REMARK VINA RESULT:      -5.6      1.933      4.743
REMARK  Name = ./3D_structures\o75_MMV1480967_3D.pdb
REMARK  5 active torsions:
REMARK  status: ('A' for Active; 'I' for Inactive)
REMARK    1  A    between atoms: C1_1  and  O1_2
REMARK    2  A    between atoms: O1_2  and  C2_3
REMARK    3  A    between atoms: C8_12  and  C14_19
REMARK    4  A    between atoms: N1_14  and  C10_15
REMARK    5  A    between atoms: C14_19  and  O4_21
REMARK                            x       y       z     vdW  Elec       q    Type
REMARK                         _______ _______ _______ _____ _____    ______ ____
ROOT
ATOM      1  C2  UNL     1     146.341 165.248 166.144  0.00  0.00    +0.000 A 
ATOM      2  C3  UNL     1     147.662 165.633 166.301  0.00  0.00    +0.000 A 
ATOM      3  F1  UNL     1     148.044 166.816 165.734  0.00  0.00    +0.000 F 
ATOM      4  C4  UNL     1     148.589 164.891 166.991  0.00  0.00    +0.000 A 
ATOM      5  F2  UNL     1     149.880 165.309 167.122  0.00  0.00    +0.000 F 
ATOM      6  C5  UNL     1     148.165 163.715 167.541  0.00  0.00    +0.000 A 
ATOM      7  C6  UNL     1     146.858 163.317 167.393  0.00  0.00    +0.000 A 
ATOM      8  C7  UNL     1     146.531 162.117 167.978  0.00  0.00    +0.000 A 
ATOM      9  O2  UNL     1     147.402 161.434 168.620  0.00  0.00    +0.000 OA
ATOM     10  C8  UNL     1     145.254 161.660 167.861  0.00  0.00    +0.000 A 
ATOM     11  C9  UNL     1     144.332 162.439 167.148  0.00  0.00    +0.000 A 
ATOM     12  N1  UNL     1     144.639 163.603 166.580  0.00  0.00    +0.000 N 
ATOM     13  C13 UNL     1     145.902 164.065 166.692  0.00  0.00    +0.000 A 
ENDROOT
BRANCH  12  14
ATOM     14  C10 UNL     1     143.671 164.363 165.823  0.00  0.00    +0.000 C 
ATOM     15  C11 UNL     1     142.300 163.871 165.785  0.00  0.00    +0.000 C 
ATOM     16  C12 UNL     1     143.082 163.738 164.557  0.00  0.00    +0.000 C 
ENDBRANCH  12  14
BRANCH   1  18
ATOM     17  C1  UNL     1     145.213 167.408 165.824  0.00  0.00    +0.000 C 
ATOM     18  O1  UNL     1     145.497 166.077 165.432  0.00  0.00    +0.000 OA
ENDBRANCH   1  18
BRANCH  10  19
ATOM     19  C14 UNL     1     144.865 160.405 168.459  0.00  0.00    +0.000 C 
ATOM     20  O3  UNL     1     144.498 159.454 167.748  0.00  0.00    +0.000 OA
BRANCH  19  21
ATOM     21  O4  UNL     1     144.899 160.252 169.822  0.00  0.00    +0.000 OA
ATOM     22  H11 UNL     1     144.163 159.830 170.371  0.00  0.00    +0.000 HD
ENDBRANCH  19  21
ENDBRANCH  10  19
TORSDOF 4
ENDMDL
MODEL 7
REMARK VINA RESULT:      -5.5      2.680      5.524
REMARK  Name = ./3D_structures\o75_MMV1480967_3D.pdb
REMARK  5 active torsions:
REMARK  status: ('A' for Active; 'I' for Inactive)
REMARK    1  A    between atoms: C1_1  and  O1_2
REMARK    2  A    between atoms: O1_2  and  C2_3
REMARK    3  A    between atoms: C8_12  and  C14_19
REMARK    4  A    between atoms: N1_14  and  C10_15
REMARK    5  A    between atoms: C14_19  and  O4_21
REMARK                            x       y       z     vdW  Elec       q    Type
REMARK                         _______ _______ _______ _____ _____    ______ ____
ROOT
ATOM      1  C2  UNL     1     147.409 164.945 166.521  0.00  0.00    +0.000 A 
ATOM      2  C3  UNL     1     146.594 165.974 166.075  0.00  0.00    +0.000 A 
ATOM      3  F1  UNL     1     147.207 167.100 165.603  0.00  0.00    +0.000 F 
ATOM      4  C4  UNL     1     145.223 165.911 166.086  0.00  0.00    +0.000 A 
ATOM      5  F2  UNL     1     144.460 166.947 165.637  0.00  0.00    +0.000 F 
ATOM      6  C5  UNL     1     144.653 164.768 166.566  0.00  0.00    +0.000 A 
ATOM      7  C6  UNL     1     145.445 163.738 167.014  0.00  0.00    +0.000 A 
ATOM      8  C7  UNL     1     144.776 162.633 167.484  0.00  0.00    +0.000 A 
ATOM      9  O2  UNL     1     143.497 162.584 167.488  0.00  0.00    +0.000 OA
ATOM     10  C8  UNL     1     145.502 161.580 167.951  0.00  0.00    +0.000 A 
ATOM     11  C9  UNL     1     146.901 161.676 167.929  0.00  0.00    +0.000 A 
ATOM     12  N1  UNL     1     147.556 162.741 167.475  0.00  0.00    +0.000 N 
ATOM     13  C13 UNL     1     146.845 163.788 167.009  0.00  0.00    +0.000 A 
ENDROOT
BRANCH  12  14
ATOM     14  C10 UNL     1     148.999 162.819 167.500  0.00  0.00    +0.000 C 
ATOM     15  C11 UNL     1     149.739 161.617 167.865  0.00  0.00    +0.000 C 
ATOM     16  C12 UNL     1     149.713 162.698 168.848  0.00  0.00    +0.000 C 
ENDBRANCH  12  14
BRANCH   1  18
ATOM     17  C1  UNL     1     149.469 166.070 167.247  0.00  0.00    +0.000 C 
ATOM     18  O1  UNL     1     148.776 165.119 166.459  0.00  0.00    +0.000 OA
ENDBRANCH   1  18
BRANCH  10  19
ATOM     19  C14 UNL     1     144.844 160.399 168.454  0.00  0.00    +0.000 C 
ATOM     20  O3  UNL     1     145.107 159.962 169.587  0.00  0.00    +0.000 OA
BRANCH  19  21
ATOM     21  O4  UNL     1     143.916 159.746 167.681  0.00  0.00    +0.000 OA
ATOM     22  H11 UNL     1     142.914 159.851 167.775  0.00  0.00    +0.000 HD
ENDBRANCH  19  21
ENDBRANCH  10  19
TORSDOF 4
ENDMDL
MODEL 8
REMARK VINA RESULT:      -5.5      7.785     10.311
REMARK  Name = ./3D_structures\o75_MMV1480967_3D.pdb
REMARK  5 active torsions:
REMARK  status: ('A' for Active; 'I' for Inactive)
REMARK    1  A    between atoms: C1_1  and  O1_2
REMARK    2  A    between atoms: O1_2  and  C2_3
REMARK    3  A    between atoms: C8_12  and  C14_19
REMARK    4  A    between atoms: N1_14  and  C10_15
REMARK    5  A    between atoms: C14_19  and  O4_21
REMARK                            x       y       z     vdW  Elec       q    Type
REMARK                         _______ _______ _______ _____ _____    ______ ____
ROOT
ATOM      1  C2  UNL     1     156.025 158.136 169.314  0.00  0.00    +0.000 A 
ATOM      2  C3  UNL     1     156.075 157.615 168.031  0.00  0.00    +0.000 A 
ATOM      3  F1  UNL     1     157.157 156.846 167.707  0.00  0.00    +0.000 F 
ATOM      4  C4  UNL     1     155.101 157.833 167.088  0.00  0.00    +0.000 A 
ATOM      5  F2  UNL     1     155.191 157.300 165.837  0.00  0.00    +0.000 F 
ATOM      6  C5  UNL     1     154.038 158.608 167.454  0.00  0.00    +0.000 A 
ATOM      7  C6  UNL     1     153.973 159.134 168.721  0.00  0.00    +0.000 A 
ATOM      8  C7  UNL     1     152.867 159.905 168.990  0.00  0.00    +0.000 A 
ATOM      9  O2  UNL     1     151.965 160.101 168.104  0.00  0.00    +0.000 OA
ATOM     10  C8  UNL     1     152.746 160.464 170.225  0.00  0.00    +0.000 A 
ATOM     11  C9  UNL     1     153.758 160.225 171.165  0.00  0.00    +0.000 A 
ATOM     12  N1  UNL     1     154.831 159.479 170.914  0.00  0.00    +0.000 N 
ATOM     13  C13 UNL     1     154.960 158.920 169.693  0.00  0.00    +0.000 A 
ENDROOT
BRANCH  12  14
ATOM     14  C10 UNL     1     155.873 159.282 171.897  0.00  0.00    +0.000 C 
ATOM     15  C11 UNL     1     155.640 159.789 173.244  0.00  0.00    +0.000 C 
ATOM     16  C12 UNL     1     156.615 160.510 172.428  0.00  0.00    +0.000 C 
ENDBRANCH  12  14
BRANCH   1  18
ATOM     17  C1  UNL     1     158.379 158.329 169.992  0.00  0.00    +0.000 C 
ATOM     18  O1  UNL     1     157.060 157.847 170.179  0.00  0.00    +0.000 OA
ENDBRANCH   1  18
BRANCH  10  19
ATOM     19  C14 UNL     1     151.602 161.280 170.553  0.00  0.00    +0.000 C 
ATOM     20  O3  UNL     1     151.747 162.364 171.144  0.00  0.00    +0.000 OA
BRANCH  19  21
ATOM     21  O4  UNL     1     150.339 160.865 170.213  0.00  0.00    +0.000 OA
ATOM     22  H11 UNL     1     150.136 160.108 169.574  0.00  0.00    +0.000 HD
ENDBRANCH  19  21
ENDBRANCH  10  19
TORSDOF 4
ENDMDL
MODEL 9
REMARK VINA RESULT:      -5.4     22.131     25.066
REMARK  Name = ./3D_structures\o75_MMV1480967_3D.pdb
REMARK  5 active torsions:
REMARK  status: ('A' for Active; 'I' for Inactive)
REMARK    1  A    between atoms: C1_1  and  O1_2
REMARK    2  A    between atoms: O1_2  and  C2_3
REMARK    3  A    between atoms: C8_12  and  C14_19
REMARK    4  A    between atoms: N1_14  and  C10_15
REMARK    5  A    between atoms: C14_19  and  O4_21
REMARK                            x       y       z     vdW  Elec       q    Type
REMARK                         _______ _______ _______ _____ _____    ______ ____
ROOT
ATOM      1  C2  UNL     1     161.532 146.949 169.442  0.00  0.00    +0.000 A 
ATOM      2  C3  UNL     1     161.668 147.546 170.686  0.00  0.00    +0.000 A 
ATOM      3  F1  UNL     1     161.491 148.898 170.756  0.00  0.00    +0.000 F 
ATOM      4  C4  UNL     1     161.967 146.848 171.830  0.00  0.00    +0.000 A 
ATOM      5  F2  UNL     1     162.091 147.475 173.033  0.00  0.00    +0.000 F 
ATOM      6  C5  UNL     1     162.137 145.498 171.713  0.00  0.00    +0.000 A 
ATOM      7  C6  UNL     1     162.007 144.890 170.488  0.00  0.00    +0.000 A 
ATOM      8  C7  UNL     1     162.202 143.530 170.474  0.00  0.00    +0.000 A 
ATOM      9  O2  UNL     1     162.479 142.889 171.546  0.00  0.00    +0.000 OA
ATOM     10  C8  UNL     1     162.097 142.867 169.289  0.00  0.00    +0.000 A 
ATOM     11  C9  UNL     1     161.793 143.608 168.138  0.00  0.00    +0.000 A 
ATOM     12  N1  UNL     1     161.602 144.925 168.143  0.00  0.00    +0.000 N 
ATOM     13  C13 UNL     1     161.702 145.590 169.312  0.00  0.00    +0.000 A 
ENDROOT
BRANCH  12  14
ATOM     14  C10 UNL     1     161.324 145.662 166.930  0.00  0.00    +0.000 C 
ATOM     15  C11 UNL     1     161.092 144.899 165.710  0.00  0.00    +0.000 C 
ATOM     16  C12 UNL     1     162.357 145.625 165.802  0.00  0.00    +0.000 C 
ENDBRANCH  12  14
BRANCH   1  18
ATOM     17  C1  UNL     1     162.070 148.798 167.914  0.00  0.00    +0.000 C 
ATOM     18  O1  UNL     1     161.226 147.751 168.362  0.00  0.00    +0.000 OA
ENDBRANCH   1  18
BRANCH  10  19
ATOM     19  C14 UNL     1     162.293 141.439 169.226  0.00  0.00    +0.000 C 
ATOM     20  O3  UNL     1     161.572 140.733 168.499  0.00  0.00    +0.000 OA
BRANCH  19  21
ATOM     21  O4  UNL     1     163.283 140.846 169.969  0.00  0.00    +0.000 OA
ATOM     22  H11 UNL     1     163.970 140.202 169.600  0.00  0.00    +0.000 HD
ENDBRANCH  19  21
ENDBRANCH  10  19
TORSDOF 4
ENDMDL
