MODEL 1
REMARK VINA RESULT:      -5.3      0.000      0.000
REMARK  Name = ./3D_structures\o76_MMV1578570_3D.pdb
REMARK  9 active torsions:
REMARK  status: ('A' for Active; 'I' for Inactive)
REMARK    1  A    between atoms: C1_1  and  C2_2
REMARK    2  A    between atoms: C2_2  and  C3_3
REMARK    3  A    between atoms: C3_3  and  C4_4
REMARK    4  A    between atoms: C3_3  and  N1_5
REMARK    5  A    between atoms: N1_5  and  C5_6
REMARK    6  A    between atoms: C5_6  and  C6_7
REMARK    7  A    between atoms: C6_7  and  O1_8
REMARK    8  A    between atoms: C6_7  and  C7_9
REMARK    9  A    between atoms: C7_9  and  N2_10
REMARK                            x       y       z     vdW  Elec       q    Type
REMARK                         _______ _______ _______ _____ _____    ______ ____
ROOT
ATOM      1  N2  UNL     1     155.097 157.875 167.504  0.00  0.00    +0.000 N 
ATOM      2  C8  UNL     1     156.149 157.545 166.743  0.00  0.00    +0.000 A 
ATOM      3  C9  UNL     1     157.099 156.539 166.833  0.00  0.00    +0.000 A 
ATOM      4  C10 UNL     1     158.098 156.438 165.883  0.00  0.00    +0.000 A 
ATOM      5  C11 UNL     1     158.159 157.336 164.841  0.00  0.00    +0.000 A 
ATOM      6 CL1  UNL     1     159.448 157.155 163.675  0.00  0.00    +0.000 Cl
ATOM      7  C12 UNL     1     157.220 158.346 164.734  0.00  0.00    +0.000 A 
ATOM      8  C13 UNL     1     156.235 158.424 165.695  0.00  0.00    +0.000 A 
ATOM      9  C14 UNL     1     155.184 159.337 165.820  0.00  0.00    +0.000 A 
ATOM     10  C15 UNL     1     154.769 160.419 165.088  0.00  0.00    +0.000 A 
ATOM     11  C16 UNL     1     153.672 161.120 165.495  0.00  0.00    +0.000 A 
ATOM     12 CL2  UNL     1     153.122 162.507 164.584  0.00  0.00    +0.000 Cl
ATOM     13  C17 UNL     1     152.961 160.770 166.630  0.00  0.00    +0.000 A 
ATOM     14  C18 UNL     1     153.413 159.667 167.345  0.00  0.00    +0.000 A 
ATOM     15  C19 UNL     1     154.513 158.936 166.970  0.00  0.00    +0.000 A 
ENDROOT
BRANCH   1  16
ATOM     16  C7  UNL     1     154.649 157.217 168.730  0.00  0.00    +0.000 C 
BRANCH  16  17
ATOM     17  C6  UNL     1     155.614 157.383 169.835  0.00  0.00    +0.000 C 
BRANCH  17  18
ATOM     18  O1  UNL     1     155.640 156.335 170.758  0.00  0.00    +0.000 OA
ATOM     19  H14 UNL     1     156.534 156.365 171.191  0.00  0.00    +0.000 HD
ENDBRANCH  17  18
BRANCH  17  20
ATOM     20  C5  UNL     1     155.526 158.723 170.498  0.00  0.00    +0.000 C 
BRANCH  20  21
ATOM     21  N1  UNL     1     156.834 159.293 170.607  0.00  0.00    +0.000 NA
ATOM     22  H10 UNL     1     157.433 158.783 171.316  0.00  0.00    +0.000 HD
BRANCH  21  23
ATOM     23  C3  UNL     1     157.551 159.354 169.340  0.00  0.00    +0.000 C 
ATOM     24  C4  UNL     1     157.491 160.714 168.730  0.00  0.00    +0.000 C 
BRANCH  23  26
ATOM     25  C1  UNL     1     159.695 158.872 168.189  0.00  0.00    +0.000 C 
ATOM     26  C2  UNL     1     158.934 158.789 169.477  0.00  0.00    +0.000 C 
ENDBRANCH  23  26
ENDBRANCH  21  23
ENDBRANCH  20  21
ENDBRANCH  17  20
ENDBRANCH  16  17
ENDBRANCH   1  16
TORSDOF 7
ENDMDL
MODEL 2
REMARK VINA RESULT:      -5.2      2.747      4.960
REMARK  Name = ./3D_structures\o76_MMV1578570_3D.pdb
REMARK  9 active torsions:
REMARK  status: ('A' for Active; 'I' for Inactive)
REMARK    1  A    between atoms: C1_1  and  C2_2
REMARK    2  A    between atoms: C2_2  and  C3_3
REMARK    3  A    between atoms: C3_3  and  C4_4
REMARK    4  A    between atoms: C3_3  and  N1_5
REMARK    5  A    between atoms: N1_5  and  C5_6
REMARK    6  A    between atoms: C5_6  and  C6_7
REMARK    7  A    between atoms: C6_7  and  O1_8
REMARK    8  A    between atoms: C6_7  and  C7_9
REMARK    9  A    between atoms: C7_9  and  N2_10
REMARK                            x       y       z     vdW  Elec       q    Type
REMARK                         _______ _______ _______ _____ _____    ______ ____
ROOT
ATOM      1  N2  UNL     1     156.012 157.910 168.427  0.00  0.00    +0.000 N 
ATOM      2  C8  UNL     1     155.107 158.602 167.722  0.00  0.00    +0.000 A 
ATOM      3  C9  UNL     1     154.730 158.576 166.388  0.00  0.00    +0.000 A 
ATOM      4  C10 UNL     1     153.742 159.426 165.928  0.00  0.00    +0.000 A 
ATOM      5  C11 UNL     1     153.126 160.306 166.788  0.00  0.00    +0.000 A 
ATOM      6 CL1  UNL     1     151.887 161.357 166.143  0.00  0.00    +0.000 Cl
ATOM      7  C12 UNL     1     153.488 160.347 168.123  0.00  0.00    +0.000 A 
ATOM      8  C13 UNL     1     154.476 159.488 168.556  0.00  0.00    +0.000 A 
ATOM      9  C14 UNL     1     155.022 159.332 169.833  0.00  0.00    +0.000 A 
ATOM     10  C15 UNL     1     154.798 159.930 171.045  0.00  0.00    +0.000 A 
ATOM     11  C16 UNL     1     155.525 159.537 172.130  0.00  0.00    +0.000 A 
ATOM     12 CL2  UNL     1     155.263 160.284 173.688  0.00  0.00    +0.000 Cl
ATOM     13  C17 UNL     1     156.487 158.544 172.043  0.00  0.00    +0.000 A 
ATOM     14  C18 UNL     1     156.685 157.962 170.797  0.00  0.00    +0.000 A 
ATOM     15  C19 UNL     1     155.974 158.331 169.681  0.00  0.00    +0.000 A 
ENDROOT
BRANCH   1  16
ATOM     16  C7  UNL     1     156.919 156.877 167.930  0.00  0.00    +0.000 C 
BRANCH  16  17
ATOM     17  C6  UNL     1     157.879 157.407 166.941  0.00  0.00    +0.000 C 
BRANCH  17  18
ATOM     18  O1  UNL     1     158.463 156.446 166.113  0.00  0.00    +0.000 OA
ATOM     19  H14 UNL     1     157.944 156.454 165.266  0.00  0.00    +0.000 HD
ENDBRANCH  17  18
BRANCH  17  20
ATOM     20  C5  UNL     1     158.891 158.334 167.541  0.00  0.00    +0.000 C 
BRANCH  20  21
ATOM     21  N1  UNL     1     158.898 159.570 166.820  0.00  0.00    +0.000 NA
ATOM     22  H10 UNL     1     158.179 159.583 166.043  0.00  0.00    +0.000 HD
BRANCH  21  23
ATOM     23  C3  UNL     1     158.698 160.739 167.667  0.00  0.00    +0.000 C 
ATOM     24  C4  UNL     1     157.399 161.417 167.385  0.00  0.00    +0.000 C 
BRANCH  23  26
ATOM     25  C1  UNL     1     158.193 161.338 170.020  0.00  0.00    +0.000 C 
ATOM     26  C2  UNL     1     158.931 160.404 169.110  0.00  0.00    +0.000 C 
ENDBRANCH  23  26
ENDBRANCH  21  23
ENDBRANCH  20  21
ENDBRANCH  17  20
ENDBRANCH  16  17
ENDBRANCH   1  16
TORSDOF 7
ENDMDL
MODEL 3
REMARK VINA RESULT:      -5.1      1.152      4.187
REMARK  Name = ./3D_structures\o76_MMV1578570_3D.pdb
REMARK  9 active torsions:
REMARK  status: ('A' for Active; 'I' for Inactive)
REMARK    1  A    between atoms: C1_1  and  C2_2
REMARK    2  A    between atoms: C2_2  and  C3_3
REMARK    3  A    between atoms: C3_3  and  C4_4
REMARK    4  A    between atoms: C3_3  and  N1_5
REMARK    5  A    between atoms: N1_5  and  C5_6
REMARK    6  A    between atoms: C5_6  and  C6_7
REMARK    7  A    between atoms: C6_7  and  O1_8
REMARK    8  A    between atoms: C6_7  and  C7_9
REMARK    9  A    between atoms: C7_9  and  N2_10
REMARK                            x       y       z     vdW  Elec       q    Type
REMARK                         _______ _______ _______ _____ _____    ______ ____
ROOT
ATOM      1  N2  UNL     1     155.008 158.170 168.636  0.00  0.00    +0.000 N 
ATOM      2  C8  UNL     1     154.173 159.016 168.019  0.00  0.00    +0.000 A 
ATOM      3  C9  UNL     1     153.136 159.816 168.473  0.00  0.00    +0.000 A 
ATOM      4  C10 UNL     1     152.427 160.606 167.587  0.00  0.00    +0.000 A 
ATOM      5  C11 UNL     1     152.744 160.604 166.247  0.00  0.00    +0.000 A 
ATOM      6 CL1  UNL     1     151.808 161.623 165.180  0.00  0.00    +0.000 Cl
ATOM      7  C12 UNL     1     153.776 159.813 165.775  0.00  0.00    +0.000 A 
ATOM      8  C13 UNL     1     154.466 159.034 166.680  0.00  0.00    +0.000 A 
ATOM      9  C14 UNL     1     155.532 158.156 166.467  0.00  0.00    +0.000 A 
ATOM     10  C15 UNL     1     156.240 157.767 165.360  0.00  0.00    +0.000 A 
ATOM     11  C16 UNL     1     157.251 156.862 165.497  0.00  0.00    +0.000 A 
ATOM     12 CL2  UNL     1     158.169 156.344 164.102  0.00  0.00    +0.000 Cl
ATOM     13  C17 UNL     1     157.588 156.324 166.728  0.00  0.00    +0.000 A 
ATOM     14  C18 UNL     1     156.848 156.744 167.826  0.00  0.00    +0.000 A 
ATOM     15  C19 UNL     1     155.821 157.651 167.730  0.00  0.00    +0.000 A 
ENDROOT
BRANCH   1  16
ATOM     16  C7  UNL     1     155.036 157.832 170.058  0.00  0.00    +0.000 C 
BRANCH  16  17
ATOM     17  C6  UNL     1     156.211 158.405 170.744  0.00  0.00    +0.000 C 
BRANCH  17  18
ATOM     18  O1  UNL     1     156.625 157.710 171.883  0.00  0.00    +0.000 OA
ATOM     19  H14 UNL     1     156.888 156.802 171.577  0.00  0.00    +0.000 HD
ENDBRANCH  17  18
BRANCH  17  20
ATOM     20  C5  UNL     1     156.091 159.877 170.987  0.00  0.00    +0.000 C 
BRANCH  20  21
ATOM     21  N1  UNL     1     157.319 160.524 170.637  0.00  0.00    +0.000 NA
ATOM     22  H10 UNL     1     158.119 160.227 171.263  0.00  0.00    +0.000 HD
BRANCH  21  23
ATOM     23  C3  UNL     1     157.708 160.324 169.247  0.00  0.00    +0.000 C 
ATOM     24  C4  UNL     1     157.030 161.290 168.333  0.00  0.00    +0.000 C 
BRANCH  23  26
ATOM     25  C1  UNL     1     159.641 159.054 168.352  0.00  0.00    +0.000 C 
ATOM     26  C2  UNL     1     159.200 160.270 169.108  0.00  0.00    +0.000 C 
ENDBRANCH  23  26
ENDBRANCH  21  23
ENDBRANCH  20  21
ENDBRANCH  17  20
ENDBRANCH  16  17
ENDBRANCH   1  16
TORSDOF 7
ENDMDL
MODEL 4
REMARK VINA RESULT:      -5.1      3.026      5.635
REMARK  Name = ./3D_structures\o76_MMV1578570_3D.pdb
REMARK  9 active torsions:
REMARK  status: ('A' for Active; 'I' for Inactive)
REMARK    1  A    between atoms: C1_1  and  C2_2
REMARK    2  A    between atoms: C2_2  and  C3_3
REMARK    3  A    between atoms: C3_3  and  C4_4
REMARK    4  A    between atoms: C3_3  and  N1_5
REMARK    5  A    between atoms: N1_5  and  C5_6
REMARK    6  A    between atoms: C5_6  and  C6_7
REMARK    7  A    between atoms: C6_7  and  O1_8
REMARK    8  A    between atoms: C6_7  and  C7_9
REMARK    9  A    between atoms: C7_9  and  N2_10
REMARK                            x       y       z     vdW  Elec       q    Type
REMARK                         _______ _______ _______ _____ _____    ______ ____
ROOT
ATOM      1  N2  UNL     1     158.044 157.646 167.700  0.00  0.00    +0.000 N 
ATOM      2  C8  UNL     1     157.419 157.831 168.870  0.00  0.00    +0.000 A 
ATOM      3  C9  UNL     1     156.366 157.175 169.491  0.00  0.00    +0.000 A 
ATOM      4  C10 UNL     1     155.917 157.597 170.728  0.00  0.00    +0.000 A 
ATOM      5  C11 UNL     1     156.508 158.671 171.354  0.00  0.00    +0.000 A 
ATOM      6 CL1  UNL     1     155.891 159.155 172.916  0.00  0.00    +0.000 Cl
ATOM      7  C12 UNL     1     157.559 159.338 170.751  0.00  0.00    +0.000 A 
ATOM      8  C13 UNL     1     157.988 158.897 169.517  0.00  0.00    +0.000 A 
ATOM      9  C14 UNL     1     159.012 159.389 168.703  0.00  0.00    +0.000 A 
ATOM     10  C15 UNL     1     159.909 160.419 168.816  0.00  0.00    +0.000 A 
ATOM     11  C16 UNL     1     160.804 160.641 167.812  0.00  0.00    +0.000 A 
ATOM     12 CL2  UNL     1     161.957 161.950 167.927  0.00  0.00    +0.000 Cl
ATOM     13  C17 UNL     1     160.836 159.851 166.674  0.00  0.00    +0.000 A 
ATOM     14  C18 UNL     1     159.911 158.817 166.596  0.00  0.00    +0.000 A 
ATOM     15  C19 UNL     1     158.992 158.562 167.586  0.00  0.00    +0.000 A 
ENDROOT
BRANCH   1  16
ATOM     16  C7  UNL     1     157.748 156.634 166.688  0.00  0.00    +0.000 C 
BRANCH  16  17
ATOM     17  C6  UNL     1     156.396 156.796 166.116  0.00  0.00    +0.000 C 
BRANCH  17  18
ATOM     18  O1  UNL     1     156.016 155.803 165.212  0.00  0.00    +0.000 OA
ATOM     19  H14 UNL     1     155.058 155.968 165.001  0.00  0.00    +0.000 HD
ENDBRANCH  17  18
BRANCH  17  20
ATOM     20  C5  UNL     1     156.141 158.175 165.591  0.00  0.00    +0.000 C 
BRANCH  20  21
ATOM     21  N1  UNL     1     154.953 158.705 166.186  0.00  0.00    +0.000 NA
ATOM     22  H10 UNL     1     154.629 158.128 167.012  0.00  0.00    +0.000 HD
BRANCH  21  23
ATOM     23  C3  UNL     1     155.080 160.096 166.603  0.00  0.00    +0.000 C 
ATOM     24  C4  UNL     1     154.780 160.273 168.054  0.00  0.00    +0.000 C 
BRANCH  23  26
ATOM     25  C1  UNL     1     156.855 161.762 167.077  0.00  0.00    +0.000 C 
ATOM     26  C2  UNL     1     156.391 160.673 166.159  0.00  0.00    +0.000 C 
ENDBRANCH  23  26
ENDBRANCH  21  23
ENDBRANCH  20  21
ENDBRANCH  17  20
ENDBRANCH  16  17
ENDBRANCH   1  16
TORSDOF 7
ENDMDL
MODEL 5
REMARK VINA RESULT:      -5.1      3.817      5.534
REMARK  Name = ./3D_structures\o76_MMV1578570_3D.pdb
REMARK  9 active torsions:
REMARK  status: ('A' for Active; 'I' for Inactive)
REMARK    1  A    between atoms: C1_1  and  C2_2
REMARK    2  A    between atoms: C2_2  and  C3_3
REMARK    3  A    between atoms: C3_3  and  C4_4
REMARK    4  A    between atoms: C3_3  and  N1_5
REMARK    5  A    between atoms: N1_5  and  C5_6
REMARK    6  A    between atoms: C5_6  and  C6_7
REMARK    7  A    between atoms: C6_7  and  O1_8
REMARK    8  A    between atoms: C6_7  and  C7_9
REMARK    9  A    between atoms: C7_9  and  N2_10
REMARK                            x       y       z     vdW  Elec       q    Type
REMARK                         _______ _______ _______ _____ _____    ______ ____
ROOT
ATOM      1  N2  UNL     1     152.397 159.856 168.604  0.00  0.00    +0.000 N 
ATOM      2  C8  UNL     1     153.381 158.997 168.307  0.00  0.00    +0.000 A 
ATOM      3  C9  UNL     1     153.955 157.944 169.002  0.00  0.00    +0.000 A 
ATOM      4  C10 UNL     1     154.983 157.214 168.435  0.00  0.00    +0.000 A 
ATOM      5  C11 UNL     1     155.446 157.526 167.177  0.00  0.00    +0.000 A 
ATOM      6 CL1  UNL     1     156.749 156.566 166.518  0.00  0.00    +0.000 Cl
ATOM      7  C12 UNL     1     154.885 158.573 166.467  0.00  0.00    +0.000 A 
ATOM      8  C13 UNL     1     153.862 159.285 167.056  0.00  0.00    +0.000 A 
ATOM      9  C14 UNL     1     153.137 160.374 166.563  0.00  0.00    +0.000 A 
ATOM     10  C15 UNL     1     153.169 161.091 165.396  0.00  0.00    +0.000 A 
ATOM     11  C16 UNL     1     152.302 162.129 165.224  0.00  0.00    +0.000 A 
ATOM     12 CL2  UNL     1     152.322 163.064 163.748  0.00  0.00    +0.000 Cl
ATOM     13  C17 UNL     1     151.383 162.482 166.199  0.00  0.00    +0.000 A 
ATOM     14  C18 UNL     1     151.381 161.731 167.368  0.00  0.00    +0.000 A 
ATOM     15  C19 UNL     1     152.240 160.679 167.580  0.00  0.00    +0.000 A 
ENDROOT
BRANCH   1  16
ATOM     16  C7  UNL     1     151.622 159.921 169.841  0.00  0.00    +0.000 C 
BRANCH  16  17
ATOM     17  C6  UNL     1     150.543 158.913 169.877  0.00  0.00    +0.000 C 
BRANCH  17  18
ATOM     18  O1  UNL     1     149.289 159.378 169.474  0.00  0.00    +0.000 OA
ATOM     19  H14 UNL     1     149.442 160.263 169.047  0.00  0.00    +0.000 HD
ENDBRANCH  17  18
BRANCH  17  20
ATOM     20  C5  UNL     1     150.484 158.159 171.169  0.00  0.00    +0.000 C 
BRANCH  20  21
ATOM     21  N1  UNL     1     149.143 157.721 171.410  0.00  0.00    +0.000 NA
ATOM     22  H10 UNL     1     148.453 158.158 170.736  0.00  0.00    +0.000 HD
BRANCH  21  23
ATOM     23  C3  UNL     1     148.987 156.272 171.370  0.00  0.00    +0.000 C 
ATOM     24  C4  UNL     1     148.121 155.836 170.235  0.00  0.00    +0.000 C 
BRANCH  23  26
ATOM     25  C1  UNL     1     150.209 154.131 171.102  0.00  0.00    +0.000 C 
ATOM     26  C2  UNL     1     150.318 155.585 171.443  0.00  0.00    +0.000 C 
ENDBRANCH  23  26
ENDBRANCH  21  23
ENDBRANCH  20  21
ENDBRANCH  17  20
ENDBRANCH  16  17
ENDBRANCH   1  16
TORSDOF 7
ENDMDL
MODEL 6
REMARK VINA RESULT:      -5.1      3.018      5.074
REMARK  Name = ./3D_structures\o76_MMV1578570_3D.pdb
REMARK  9 active torsions:
REMARK  status: ('A' for Active; 'I' for Inactive)
REMARK    1  A    between atoms: C1_1  and  C2_2
REMARK    2  A    between atoms: C2_2  and  C3_3
REMARK    3  A    between atoms: C3_3  and  C4_4
REMARK    4  A    between atoms: C3_3  and  N1_5
REMARK    5  A    between atoms: N1_5  and  C5_6
REMARK    6  A    between atoms: C5_6  and  C6_7
REMARK    7  A    between atoms: C6_7  and  O1_8
REMARK    8  A    between atoms: C6_7  and  C7_9
REMARK    9  A    between atoms: C7_9  and  N2_10
REMARK                            x       y       z     vdW  Elec       q    Type
REMARK                         _______ _______ _______ _____ _____    ______ ____
ROOT
ATOM      1  N2  UNL     1     158.061 157.689 167.684  0.00  0.00    +0.000 N 
ATOM      2  C8  UNL     1     159.018 158.618 167.557  0.00  0.00    +0.000 A 
ATOM      3  C9  UNL     1     159.944 158.887 166.560  0.00  0.00    +0.000 A 
ATOM      4  C10 UNL     1     160.833 159.935 166.702  0.00  0.00    +0.000 A 
ATOM      5  C11 UNL     1     160.809 160.720 167.834  0.00  0.00    +0.000 A 
ATOM      6 CL1  UNL     1     161.962 162.027 167.953  0.00  0.00    +0.000 Cl
ATOM      7  C12 UNL     1     159.892 160.467 168.839  0.00  0.00    +0.000 A 
ATOM      8  C13 UNL     1     159.017 159.415 168.672  0.00  0.00    +0.000 A 
ATOM      9  C14 UNL     1     158.010 158.951 169.524  0.00  0.00    +0.000 A 
ATOM     10  C15 UNL     1     157.550 159.339 170.755  0.00  0.00    +0.000 A 
ATOM     11  C16 UNL     1     156.523 158.652 171.332  0.00  0.00    +0.000 A 
ATOM     12 CL2  UNL     1     155.918 159.121 172.903  0.00  0.00    +0.000 Cl
ATOM     13  C17 UNL     1     155.926 157.570 170.706  0.00  0.00    +0.000 A 
ATOM     14  C18 UNL     1     156.420 157.208 169.459  0.00  0.00    +0.000 A 
ATOM     15  C19 UNL     1     157.454 157.873 168.846  0.00  0.00    +0.000 A 
ENDROOT
BRANCH   1  16
ATOM     16  C7  UNL     1     157.728 156.625 166.739  0.00  0.00    +0.000 C 
BRANCH  16  17
ATOM     17  C6  UNL     1     156.389 156.807 166.144  0.00  0.00    +0.000 C 
BRANCH  17  18
ATOM     18  O1  UNL     1     156.023 155.838 165.208  0.00  0.00    +0.000 OA
ATOM     19  H14 UNL     1     156.498 155.004 165.467  0.00  0.00    +0.000 HD
ENDBRANCH  17  18
BRANCH  17  20
ATOM     20  C5  UNL     1     156.150 158.199 165.646  0.00  0.00    +0.000 C 
BRANCH  20  21
ATOM     21  N1  UNL     1     154.835 158.624 166.015  0.00  0.00    +0.000 NA
ATOM     22  H10 UNL     1     154.343 157.913 166.625  0.00  0.00    +0.000 HD
BRANCH  21  23
ATOM     23  C3  UNL     1     154.806 159.919 166.682  0.00  0.00    +0.000 C 
ATOM     24  C4  UNL     1     154.279 159.817 168.074  0.00  0.00    +0.000 C 
BRANCH  23  26
ATOM     25  C1  UNL     1     156.304 161.655 167.626  0.00  0.00    +0.000 C 
ATOM     26  C2  UNL     1     156.128 160.616 166.561  0.00  0.00    +0.000 C 
ENDBRANCH  23  26
ENDBRANCH  21  23
ENDBRANCH  20  21
ENDBRANCH  17  20
ENDBRANCH  16  17
ENDBRANCH   1  16
TORSDOF 7
ENDMDL
MODEL 7
REMARK VINA RESULT:      -5.1      3.665      6.491
REMARK  Name = ./3D_structures\o76_MMV1578570_3D.pdb
REMARK  9 active torsions:
REMARK  status: ('A' for Active; 'I' for Inactive)
REMARK    1  A    between atoms: C1_1  and  C2_2
REMARK    2  A    between atoms: C2_2  and  C3_3
REMARK    3  A    between atoms: C3_3  and  C4_4
REMARK    4  A    between atoms: C3_3  and  N1_5
REMARK    5  A    between atoms: N1_5  and  C5_6
REMARK    6  A    between atoms: C5_6  and  C6_7
REMARK    7  A    between atoms: C6_7  and  O1_8
REMARK    8  A    between atoms: C6_7  and  C7_9
REMARK    9  A    between atoms: C7_9  and  N2_10
REMARK                            x       y       z     vdW  Elec       q    Type
REMARK                         _______ _______ _______ _____ _____    ______ ____
ROOT
ATOM      1  N2  UNL     1     158.030 157.262 167.516  0.00  0.00    +0.000 N 
ATOM      2  C8  UNL     1     157.421 157.549 168.674  0.00  0.00    +0.000 A 
ATOM      3  C9  UNL     1     156.335 156.991 169.331  0.00  0.00    +0.000 A 
ATOM      4  C10 UNL     1     155.915 157.507 170.544  0.00  0.00    +0.000 A 
ATOM      5  C11 UNL     1     156.571 158.578 171.108  0.00  0.00    +0.000 A 
ATOM      6 CL1  UNL     1     155.989 159.184 172.640  0.00  0.00    +0.000 Cl
ATOM      7  C12 UNL     1     157.657 159.148 170.468  0.00  0.00    +0.000 A 
ATOM      8  C13 UNL     1     158.054 158.614 169.260  0.00  0.00    +0.000 A 
ATOM      9  C14 UNL     1     159.102 158.999 168.419  0.00  0.00    +0.000 A 
ATOM     10  C15 UNL     1     160.058 159.979 168.474  0.00  0.00    +0.000 A 
ATOM     11  C16 UNL     1     160.960 160.092 167.458  0.00  0.00    +0.000 A 
ATOM     12 CL2  UNL     1     162.188 161.335 167.499  0.00  0.00    +0.000 Cl
ATOM     13  C17 UNL     1     160.941 159.239 166.366  0.00  0.00    +0.000 A 
ATOM     14  C18 UNL     1     159.958 158.258 166.347  0.00  0.00    +0.000 A 
ATOM     15  C19 UNL     1     159.030 158.113 167.350  0.00  0.00    +0.000 A 
ENDROOT
BRANCH   1  16
ATOM     16  C7  UNL     1     157.671 156.214 166.562  0.00  0.00    +0.000 C 
BRANCH  16  17
ATOM     17  C6  UNL     1     156.854 156.732 165.447  0.00  0.00    +0.000 C 
BRANCH  17  18
ATOM     18  O1  UNL     1     155.479 156.530 165.580  0.00  0.00    +0.000 OA
ATOM     19  H14 UNL     1     155.191 157.071 166.363  0.00  0.00    +0.000 HD
ENDBRANCH  17  18
BRANCH  17  20
ATOM     20  C5  UNL     1     157.364 156.317 164.102  0.00  0.00    +0.000 C 
BRANCH  20  21
ATOM     21  N1  UNL     1     157.114 154.923 163.901  0.00  0.00    +0.000 NA
ATOM     22  H10 UNL     1     156.280 154.754 163.270  0.00  0.00    +0.000 HD
BRANCH  21  23
ATOM     23  C3  UNL     1     158.260 154.195 163.372  0.00  0.00    +0.000 C 
ATOM     24  C4  UNL     1     159.104 155.051 162.487  0.00  0.00    +0.000 C 
BRANCH  23  26
ATOM     25  C1  UNL     1     158.642 152.048 164.553  0.00  0.00    +0.000 C 
ATOM     26  C2  UNL     1     159.008 153.499 164.470  0.00  0.00    +0.000 C 
ENDBRANCH  23  26
ENDBRANCH  21  23
ENDBRANCH  20  21
ENDBRANCH  17  20
ENDBRANCH  16  17
ENDBRANCH   1  16
TORSDOF 7
ENDMDL
MODEL 8
REMARK VINA RESULT:      -5.1      2.295      5.174
REMARK  Name = ./3D_structures\o76_MMV1578570_3D.pdb
REMARK  9 active torsions:
REMARK  status: ('A' for Active; 'I' for Inactive)
REMARK    1  A    between atoms: C1_1  and  C2_2
REMARK    2  A    between atoms: C2_2  and  C3_3
REMARK    3  A    between atoms: C3_3  and  C4_4
REMARK    4  A    between atoms: C3_3  and  N1_5
REMARK    5  A    between atoms: N1_5  and  C5_6
REMARK    6  A    between atoms: C5_6  and  C6_7
REMARK    7  A    between atoms: C6_7  and  O1_8
REMARK    8  A    between atoms: C6_7  and  C7_9
REMARK    9  A    between atoms: C7_9  and  N2_10
REMARK                            x       y       z     vdW  Elec       q    Type
REMARK                         _______ _______ _______ _____ _____    ______ ____
ROOT
ATOM      1  N2  UNL     1     155.508 158.289 169.220  0.00  0.00    +0.000 N 
ATOM      2  C8  UNL     1     154.499 159.067 168.806  0.00  0.00    +0.000 A 
ATOM      3  C9  UNL     1     153.610 159.893 169.476  0.00  0.00    +0.000 A 
ATOM      4  C10 UNL     1     152.646 160.593 168.773  0.00  0.00    +0.000 A 
ATOM      5  C11 UNL     1     152.561 160.474 167.404  0.00  0.00    +0.000 A 
ATOM      6 CL1  UNL     1     151.319 161.383 166.575  0.00  0.00    +0.000 Cl
ATOM      7  C12 UNL     1     153.440 159.655 166.718  0.00  0.00    +0.000 A 
ATOM      8  C13 UNL     1     154.391 158.968 167.443  0.00  0.00    +0.000 A 
ATOM      9  C14 UNL     1     155.381 158.086 167.002  0.00  0.00    +0.000 A 
ATOM     10  C15 UNL     1     155.750 157.606 165.773  0.00  0.00    +0.000 A 
ATOM     11  C16 UNL     1     156.790 156.729 165.682  0.00  0.00    +0.000 A 
ATOM     12 CL2  UNL     1     157.282 156.097 164.128  0.00  0.00    +0.000 Cl
ATOM     13  C17 UNL     1     157.489 156.306 166.801  0.00  0.00    +0.000 A 
ATOM     14  C18 UNL     1     157.084 156.816 168.029  0.00  0.00    +0.000 A 
ATOM     15  C19 UNL     1     156.041 157.700 168.162  0.00  0.00    +0.000 A 
ENDROOT
BRANCH   1  16
ATOM     16  C7  UNL     1     155.959 158.080 170.595  0.00  0.00    +0.000 C 
BRANCH  16  17
ATOM     17  C6  UNL     1     157.105 158.943 170.943  0.00  0.00    +0.000 C 
BRANCH  17  18
ATOM     18  O1  UNL     1     158.297 158.264 171.201  0.00  0.00    +0.000 OA
ATOM     19  H14 UNL     1     158.610 158.575 172.092  0.00  0.00    +0.000 HD
ENDBRANCH  17  18
BRANCH  17  20
ATOM     20  C5  UNL     1     156.783 159.952 172.001  0.00  0.00    +0.000 C 
BRANCH  20  21
ATOM     21  N1  UNL     1     155.578 159.576 172.674  0.00  0.00    +0.000 NA
ATOM     22  H10 UNL     1     155.751 158.854 173.429  0.00  0.00    +0.000 HD
BRANCH  21  23
ATOM     23  C3  UNL     1     154.859 160.703 173.256  0.00  0.00    +0.000 C 
ATOM     24  C4  UNL     1     154.792 161.864 172.321  0.00  0.00    +0.000 C 
BRANCH  23  26
ATOM     25  C1  UNL     1     152.397 160.745 172.963  0.00  0.00    +0.000 C 
ATOM     26  C2  UNL     1     153.536 160.268 173.811  0.00  0.00    +0.000 C 
ENDBRANCH  23  26
ENDBRANCH  21  23
ENDBRANCH  20  21
ENDBRANCH  17  20
ENDBRANCH  16  17
ENDBRANCH   1  16
TORSDOF 7
ENDMDL
MODEL 9
REMARK VINA RESULT:      -5.1      2.331      4.122
REMARK  Name = ./3D_structures\o76_MMV1578570_3D.pdb
REMARK  9 active torsions:
REMARK  status: ('A' for Active; 'I' for Inactive)
REMARK    1  A    between atoms: C1_1  and  C2_2
REMARK    2  A    between atoms: C2_2  and  C3_3
REMARK    3  A    between atoms: C3_3  and  C4_4
REMARK    4  A    between atoms: C3_3  and  N1_5
REMARK    5  A    between atoms: N1_5  and  C5_6
REMARK    6  A    between atoms: C5_6  and  C6_7
REMARK    7  A    between atoms: C6_7  and  O1_8
REMARK    8  A    between atoms: C6_7  and  C7_9
REMARK    9  A    between atoms: C7_9  and  N2_10
REMARK                            x       y       z     vdW  Elec       q    Type
REMARK                         _______ _______ _______ _____ _____    ______ ____
ROOT
ATOM      1  N2  UNL     1     156.674 158.284 169.504  0.00  0.00    +0.000 N 
ATOM      2  C8  UNL     1     157.278 157.828 168.399  0.00  0.00    +0.000 A 
ATOM      3  C9  UNL     1     157.105 156.686 167.632  0.00  0.00    +0.000 A 
ATOM      4  C10 UNL     1     157.893 156.471 166.517  0.00  0.00    +0.000 A 
ATOM      5  C11 UNL     1     158.857 157.387 166.159  0.00  0.00    +0.000 A 
ATOM      6 CL1  UNL     1     159.822 157.054 164.740  0.00  0.00    +0.000 Cl
ATOM      7  C12 UNL     1     159.045 158.533 166.912  0.00  0.00    +0.000 A 
ATOM      8  C13 UNL     1     158.245 158.722 168.019  0.00  0.00    +0.000 A 
ATOM      9  C14 UNL     1     158.233 159.777 168.937  0.00  0.00    +0.000 A 
ATOM     10  C15 UNL     1     158.957 160.932 169.072  0.00  0.00    +0.000 A 
ATOM     11  C16 UNL     1     158.689 161.772 170.112  0.00  0.00    +0.000 A 
ATOM     12 CL2  UNL     1     159.599 163.251 170.312  0.00  0.00    +0.000 Cl
ATOM     13  C17 UNL     1     157.700 161.492 171.041  0.00  0.00    +0.000 A 
ATOM     14  C18 UNL     1     156.987 160.311 170.870  0.00  0.00    +0.000 A 
ATOM     15  C19 UNL     1     157.228 159.439 169.836  0.00  0.00    +0.000 A 
ENDROOT
BRANCH   1  16
ATOM     16  C7  UNL     1     155.600 157.637 170.256  0.00  0.00    +0.000 C 
BRANCH  16  17
ATOM     17  C6  UNL     1     154.284 157.808 169.608  0.00  0.00    +0.000 C 
BRANCH  17  18
ATOM     18  O1  UNL     1     153.955 156.823 168.675  0.00  0.00    +0.000 OA
ATOM     19  H14 UNL     1     154.779 156.284 168.534  0.00  0.00    +0.000 HD
ENDBRANCH  17  18
BRANCH  17  20
ATOM     20  C5  UNL     1     154.063 159.191 169.080  0.00  0.00    +0.000 C 
BRANCH  20  21
ATOM     21  N1  UNL     1     153.482 159.121 167.774  0.00  0.00    +0.000 NA
ATOM     22  H10 UNL     1     152.468 159.426 167.772  0.00  0.00    +0.000 HD
BRANCH  21  23
ATOM     23  C3  UNL     1     154.208 159.890 166.771  0.00  0.00    +0.000 C 
ATOM     24  C4  UNL     1     155.060 160.948 167.388  0.00  0.00    +0.000 C 
BRANCH  23  26
ATOM     25  C1  UNL     1     156.012 159.707 165.080  0.00  0.00    +0.000 C 
ATOM     26  C2  UNL     1     154.925 158.984 165.815  0.00  0.00    +0.000 C 
ENDBRANCH  23  26
ENDBRANCH  21  23
ENDBRANCH  20  21
ENDBRANCH  17  20
ENDBRANCH  16  17
ENDBRANCH   1  16
TORSDOF 7
ENDMDL
