MODEL 1
REMARK VINA RESULT:      -5.6      0.000      0.000
REMARK  Name = ./3D_structures\o77_MMV1578564_3D.pdb
REMARK  6 active torsions:
REMARK  status: ('A' for Active; 'I' for Inactive)
REMARK    1  A    between atoms: C1_1  and  C2_2
REMARK    2  A    between atoms: C2_2  and  C3_3
REMARK    3  A    between atoms: C5_5  and  O1_6
REMARK    4  A    between atoms: C6_7  and  O2_8
REMARK    5  A    between atoms: O2_8  and  C7_9
REMARK    6  A    between atoms: C10_12  and  C13_16
REMARK                            x       y       z     vdW  Elec       q    Type
REMARK                         _______ _______ _______ _____ _____    ______ ____
ROOT
ATOM      1  O2  UNL     1     160.658 158.753 166.757  0.00  0.00    +0.000 OA
ENDROOT
BRANCH   1   5
ATOM      2  C3  UNL     1     157.209 157.445 168.698  0.00  0.00    +0.000 A 
ATOM      3  C4  UNL     1     157.397 157.191 167.373  0.00  0.00    +0.000 A 
ATOM      4  C5  UNL     1     158.555 157.639 166.751  0.00  0.00    +0.000 A 
ATOM      5  C6  UNL     1     159.528 158.330 167.422  0.00  0.00    +0.000 A 
ATOM      6  C14 UNL     1     159.324 158.578 168.759  0.00  0.00    +0.000 A 
ATOM      7  C15 UNL     1     158.162 158.135 169.402  0.00  0.00    +0.000 A 
ATOM      8  F2  UNL     1     157.995 158.400 170.732  0.00  0.00    +0.000 F 
BRANCH   2  10
ATOM      9  C1  UNL     1     154.734 157.293 168.690  0.00  0.00    +0.000 C 
ATOM     10  C2  UNL     1     156.006 157.010 169.456  0.00  0.00    +0.000 C 
ENDBRANCH   2  10
BRANCH   4  11
ATOM     11  O1  UNL     1     158.712 157.364 165.405  0.00  0.00    +0.000 OA
ATOM     12  H7  UNL     1     159.466 157.776 164.875  0.00  0.00    +0.000 HD
ENDBRANCH   4  11
ENDBRANCH   1   5
BRANCH   1  13
ATOM     13  C7  UNL     1     161.949 158.681 167.188  0.00  0.00    +0.000 A 
ATOM     14  C8  UNL     1     162.573 157.465 167.473  0.00  0.00    +0.000 A 
ATOM     15  C9  UNL     1     163.879 157.449 167.904  0.00  0.00    +0.000 A 
ATOM     16  C10 UNL     1     164.624 158.596 168.073  0.00  0.00    +0.000 A 
ATOM     17  C11 UNL     1     164.011 159.797 167.793  0.00  0.00    +0.000 A 
ATOM     18  C12 UNL     1     162.683 159.835 167.353  0.00  0.00    +0.000 A 
ATOM     19  F1  UNL     1     162.144 161.058 167.088  0.00  0.00    +0.000 F 
BRANCH  16  20
ATOM     20  C13 UNL     1     166.008 158.570 168.530  0.00  0.00    +0.000 C 
ATOM     21  O3  UNL     1     166.966 158.795 167.747  0.00  0.00    +0.000 OA
ATOM     22  N1  UNL     1     166.301 158.286 169.885  0.00  0.00    +0.000 N 
ATOM     23  H11 UNL     1     166.002 158.964 170.607  0.00  0.00    +0.000 HD
ATOM     24  H12 UNL     1     166.802 157.429 170.185  0.00  0.00    +0.000 HD
ENDBRANCH  16  20
ENDBRANCH   1  13
TORSDOF 5
ENDMDL
MODEL 2
REMARK VINA RESULT:      -5.6     12.608     16.344
REMARK  Name = ./3D_structures\o77_MMV1578564_3D.pdb
REMARK  6 active torsions:
REMARK  status: ('A' for Active; 'I' for Inactive)
REMARK    1  A    between atoms: C1_1  and  C2_2
REMARK    2  A    between atoms: C2_2  and  C3_3
REMARK    3  A    between atoms: C5_5  and  O1_6
REMARK    4  A    between atoms: C6_7  and  O2_8
REMARK    5  A    between atoms: O2_8  and  C7_9
REMARK    6  A    between atoms: C10_12  and  C13_16
REMARK                            x       y       z     vdW  Elec       q    Type
REMARK                         _______ _______ _______ _____ _____    ______ ____
ROOT
ATOM      1  O2  UNL     1     148.142 165.454 167.420  0.00  0.00    +0.000 OA
ENDROOT
BRANCH   1   5
ATOM      2  C3  UNL     1     151.507 163.608 165.795  0.00  0.00    +0.000 A 
ATOM      3  C4  UNL     1     150.835 163.034 166.831  0.00  0.00    +0.000 A 
ATOM      4  C5  UNL     1     149.718 163.671 167.354  0.00  0.00    +0.000 A 
ATOM      5  C6  UNL     1     149.256 164.864 166.864  0.00  0.00    +0.000 A 
ATOM      6  C14 UNL     1     149.944 165.429 165.818  0.00  0.00    +0.000 A 
ATOM      7  C15 UNL     1     151.074 164.802 165.278  0.00  0.00    +0.000 A 
ATOM      8  F2  UNL     1     151.732 165.395 164.238  0.00  0.00    +0.000 F 
BRANCH   2  10
ATOM      9  C1  UNL     1     152.480 161.566 164.778  0.00  0.00    +0.000 C 
ATOM     10  C2  UNL     1     152.713 163.009 165.164  0.00  0.00    +0.000 C 
ENDBRANCH   2  10
BRANCH   4  11
ATOM     11  O1  UNL     1     149.060 163.061 168.406  0.00  0.00    +0.000 OA
ATOM     12  H7  UNL     1     148.140 162.665 168.285  0.00  0.00    +0.000 HD
ENDBRANCH   4  11
ENDBRANCH   1   5
BRANCH   1  13
ATOM     13  C7  UNL     1     146.852 165.361 166.989  0.00  0.00    +0.000 A 
ATOM     14  C8  UNL     1     145.990 164.355 167.428  0.00  0.00    +0.000 A 
ATOM     15  C9  UNL     1     144.697 164.307 166.963  0.00  0.00    +0.000 A 
ATOM     16  C10 UNL     1     144.193 165.223 166.064  0.00  0.00    +0.000 A 
ATOM     17  C11 UNL     1     145.041 166.217 165.629  0.00  0.00    +0.000 A 
ATOM     18  C12 UNL     1     146.360 166.283 166.092  0.00  0.00    +0.000 A 
ATOM     19  F1  UNL     1     147.140 167.298 165.623  0.00  0.00    +0.000 F 
BRANCH  16  20
ATOM     20  C13 UNL     1     142.820 165.166 165.575  0.00  0.00    +0.000 C 
ATOM     21  O3  UNL     1     142.261 164.072 165.309  0.00  0.00    +0.000 OA
ATOM     22  N1  UNL     1     142.085 166.360 165.391  0.00  0.00    +0.000 N 
ATOM     23  H11 UNL     1     141.839 166.922 166.224  0.00  0.00    +0.000 HD
ATOM     24  H12 UNL     1     141.782 166.696 164.458  0.00  0.00    +0.000 HD
ENDBRANCH  16  20
ENDBRANCH   1  13
TORSDOF 5
ENDMDL
MODEL 3
REMARK VINA RESULT:      -5.6      5.923     10.113
REMARK  Name = ./3D_structures\o77_MMV1578564_3D.pdb
REMARK  6 active torsions:
REMARK  status: ('A' for Active; 'I' for Inactive)
REMARK    1  A    between atoms: C1_1  and  C2_2
REMARK    2  A    between atoms: C2_2  and  C3_3
REMARK    3  A    between atoms: C5_5  and  O1_6
REMARK    4  A    between atoms: C6_7  and  O2_8
REMARK    5  A    between atoms: O2_8  and  C7_9
REMARK    6  A    between atoms: C10_12  and  C13_16
REMARK                            x       y       z     vdW  Elec       q    Type
REMARK                         _______ _______ _______ _____ _____    ______ ____
ROOT
ATOM      1  O2  UNL     1     153.573 157.585 169.578  0.00  0.00    +0.000 OA
ENDROOT
BRANCH   1   5
ATOM      2  C3  UNL     1     157.691 158.135 169.245  0.00  0.00    +0.000 A 
ATOM      3  C4  UNL     1     156.967 157.670 168.190  0.00  0.00    +0.000 A 
ATOM      4  C5  UNL     1     155.597 157.495 168.328  0.00  0.00    +0.000 A 
ATOM      5  C6  UNL     1     154.935 157.776 169.494  0.00  0.00    +0.000 A 
ATOM      6  C14 UNL     1     155.679 158.245 170.550  0.00  0.00    +0.000 A 
ATOM      7  C15 UNL     1     157.062 158.426 170.429  0.00  0.00    +0.000 A 
ATOM      8  F2  UNL     1     157.769 158.895 171.501  0.00  0.00    +0.000 F 
BRANCH   2  10
ATOM      9  C1  UNL     1     159.503 159.699 168.598  0.00  0.00    +0.000 C 
ATOM     10  C2  UNL     1     159.161 158.356 169.202  0.00  0.00    +0.000 C 
ENDBRANCH   2  10
BRANCH   4  11
ATOM     11  O1  UNL     1     154.893 157.022 167.237  0.00  0.00    +0.000 OA
ATOM     12  H7  UNL     1     153.894 156.881 167.283  0.00  0.00    +0.000 HD
ENDBRANCH   4  11
ENDBRANCH   1   5
BRANCH   1  13
ATOM     13  C7  UNL     1     152.590 158.492 169.318  0.00  0.00    +0.000 A 
ATOM     14  C8  UNL     1     152.812 159.630 168.541  0.00  0.00    +0.000 A 
ATOM     15  C9  UNL     1     151.784 160.514 168.309  0.00  0.00    +0.000 A 
ATOM     16  C10 UNL     1     150.515 160.333 168.814  0.00  0.00    +0.000 A 
ATOM     17  C11 UNL     1     150.292 159.210 169.582  0.00  0.00    +0.000 A 
ATOM     18  C12 UNL     1     151.325 158.299 169.829  0.00  0.00    +0.000 A 
ATOM     19  F1  UNL     1     151.031 157.208 170.591  0.00  0.00    +0.000 F 
BRANCH  16  20
ATOM     20  C13 UNL     1     149.431 161.274 168.563  0.00  0.00    +0.000 C 
ATOM     21  O3  UNL     1     149.076 162.117 169.426  0.00  0.00    +0.000 OA
ATOM     22  N1  UNL     1     148.749 161.254 167.324  0.00  0.00    +0.000 N 
ATOM     23  H11 UNL     1     149.270 161.519 166.470  0.00  0.00    +0.000 HD
ATOM     24  H12 UNL     1     147.751 160.987 167.234  0.00  0.00    +0.000 HD
ENDBRANCH  16  20
ENDBRANCH   1  13
TORSDOF 5
ENDMDL
MODEL 4
REMARK VINA RESULT:      -5.5     11.830     15.333
REMARK  Name = ./3D_structures\o77_MMV1578564_3D.pdb
REMARK  6 active torsions:
REMARK  status: ('A' for Active; 'I' for Inactive)
REMARK    1  A    between atoms: C1_1  and  C2_2
REMARK    2  A    between atoms: C2_2  and  C3_3
REMARK    3  A    between atoms: C5_5  and  O1_6
REMARK    4  A    between atoms: C6_7  and  O2_8
REMARK    5  A    between atoms: O2_8  and  C7_9
REMARK    6  A    between atoms: C10_12  and  C13_16
REMARK                            x       y       z     vdW  Elec       q    Type
REMARK                         _______ _______ _______ _____ _____    ______ ____
ROOT
ATOM      1  O2  UNL     1     149.946 165.018 166.871  0.00  0.00    +0.000 OA
ENDROOT
BRANCH   1   5
ATOM      2  C3  UNL     1     152.996 164.283 164.127  0.00  0.00    +0.000 A 
ATOM      3  C4  UNL     1     152.850 165.516 164.687  0.00  0.00    +0.000 A 
ATOM      4  C5  UNL     1     151.825 165.734 165.597  0.00  0.00    +0.000 A 
ATOM      5  C6  UNL     1     150.946 164.749 165.962  0.00  0.00    +0.000 A 
ATOM      6  C14 UNL     1     151.107 163.510 165.389  0.00  0.00    +0.000 A 
ATOM      7  C15 UNL     1     152.134 163.273 164.468  0.00  0.00    +0.000 A 
ATOM      8  F2  UNL     1     152.262 162.027 163.920  0.00  0.00    +0.000 F 
BRANCH   2  10
ATOM      9  C1  UNL     1     155.188 164.952 163.179  0.00  0.00    +0.000 C 
ATOM     10  C2  UNL     1     154.059 163.947 163.143  0.00  0.00    +0.000 C 
ENDBRANCH   2  10
BRANCH   4  11
ATOM     11  O1  UNL     1     151.707 166.997 166.146  0.00  0.00    +0.000 OA
ATOM     12  H7  UNL     1     151.158 167.153 166.979  0.00  0.00    +0.000 HD
ENDBRANCH   4  11
ENDBRANCH   1   5
BRANCH   1  13
ATOM     13  C7  UNL     1     148.621 165.210 166.613  0.00  0.00    +0.000 A 
ATOM     14  C8  UNL     1     148.125 166.418 166.119  0.00  0.00    +0.000 A 
ATOM     15  C9  UNL     1     146.779 166.558 165.875  0.00  0.00    +0.000 A 
ATOM     16  C10 UNL     1     145.870 165.546 166.097  0.00  0.00    +0.000 A 
ATOM     17  C11 UNL     1     146.357 164.353 166.585  0.00  0.00    +0.000 A 
ATOM     18  C12 UNL     1     147.723 164.190 166.839  0.00  0.00    +0.000 A 
ATOM     19  F1  UNL     1     148.134 162.980 167.314  0.00  0.00    +0.000 F 
BRANCH  16  20
ATOM     20  C13 UNL     1     144.445 165.703 165.836  0.00  0.00    +0.000 C 
ATOM     21  O3  UNL     1     143.957 166.806 165.483  0.00  0.00    +0.000 OA
ATOM     22  N1  UNL     1     143.574 164.597 165.978  0.00  0.00    +0.000 N 
ATOM     23  H11 UNL     1     143.677 163.801 165.325  0.00  0.00    +0.000 HD
ATOM     24  H12 UNL     1     142.837 164.551 166.706  0.00  0.00    +0.000 HD
ENDBRANCH  16  20
ENDBRANCH   1  13
TORSDOF 5
ENDMDL
MODEL 5
REMARK VINA RESULT:      -5.5      4.809      6.136
REMARK  Name = ./3D_structures\o77_MMV1578564_3D.pdb
REMARK  6 active torsions:
REMARK  status: ('A' for Active; 'I' for Inactive)
REMARK    1  A    between atoms: C1_1  and  C2_2
REMARK    2  A    between atoms: C2_2  and  C3_3
REMARK    3  A    between atoms: C5_5  and  O1_6
REMARK    4  A    between atoms: C6_7  and  O2_8
REMARK    5  A    between atoms: O2_8  and  C7_9
REMARK    6  A    between atoms: C10_12  and  C13_16
REMARK                            x       y       z     vdW  Elec       q    Type
REMARK                         _______ _______ _______ _____ _____    ______ ____
ROOT
ATOM      1  O2  UNL     1     157.683 159.080 167.684  0.00  0.00    +0.000 OA
ENDROOT
BRANCH   1   5
ATOM      2  C3  UNL     1     156.238 159.300 171.588  0.00  0.00    +0.000 A 
ATOM      3  C4  UNL     1     157.475 158.789 171.335  0.00  0.00    +0.000 A 
ATOM      4  C5  UNL     1     157.931 158.727 170.025  0.00  0.00    +0.000 A 
ATOM      5  C6  UNL     1     157.183 159.165 168.965  0.00  0.00    +0.000 A 
ATOM      6  C14 UNL     1     155.936 159.678 169.237  0.00  0.00    +0.000 A 
ATOM      7  C15 UNL     1     155.459 159.748 170.552  0.00  0.00    +0.000 A 
ATOM      8  F2  UNL     1     154.215 160.265 170.782  0.00  0.00    +0.000 F 
BRANCH   2  10
ATOM      9  C1  UNL     1     155.970 160.747 173.584  0.00  0.00    +0.000 C 
ATOM     10  C2  UNL     1     155.656 159.410 172.952  0.00  0.00    +0.000 C 
ENDBRANCH   2  10
BRANCH   4  11
ATOM     11  O1  UNL     1     159.191 158.202 169.805  0.00  0.00    +0.000 OA
ATOM     12  H7  UNL     1     159.875 158.161 170.547  0.00  0.00    +0.000 HD
ENDBRANCH   4  11
ENDBRANCH   1   5
BRANCH   1  13
ATOM     13  C7  UNL     1     157.689 157.989 166.867  0.00  0.00    +0.000 A 
ATOM     14  C8  UNL     1     156.514 157.365 166.448  0.00  0.00    +0.000 A 
ATOM     15  C9  UNL     1     156.577 156.267 165.622  0.00  0.00    +0.000 A 
ATOM     16  C10 UNL     1     157.768 155.737 165.174  0.00  0.00    +0.000 A 
ATOM     17  C11 UNL     1     158.930 156.351 165.586  0.00  0.00    +0.000 A 
ATOM     18  C12 UNL     1     158.886 157.470 166.426  0.00  0.00    +0.000 A 
ATOM     19  F1  UNL     1     160.075 158.030 166.788  0.00  0.00    +0.000 F 
BRANCH  16  20
ATOM     20  C13 UNL     1     157.826 154.573 164.298  0.00  0.00    +0.000 C 
ATOM     21  O3  UNL     1     158.520 153.565 164.586  0.00  0.00    +0.000 OA
ATOM     22  N1  UNL     1     157.090 154.559 163.090  0.00  0.00    +0.000 N 
ATOM     23  H11 UNL     1     156.056 154.556 163.141  0.00  0.00    +0.000 HD
ATOM     24  H12 UNL     1     157.541 154.552 162.156  0.00  0.00    +0.000 HD
ENDBRANCH  16  20
ENDBRANCH   1  13
TORSDOF 5
ENDMDL
MODEL 6
REMARK VINA RESULT:      -5.4     15.557     17.195
REMARK  Name = ./3D_structures\o77_MMV1578564_3D.pdb
REMARK  6 active torsions:
REMARK  status: ('A' for Active; 'I' for Inactive)
REMARK    1  A    between atoms: C1_1  and  C2_2
REMARK    2  A    between atoms: C2_2  and  C3_3
REMARK    3  A    between atoms: C5_5  and  O1_6
REMARK    4  A    between atoms: C6_7  and  O2_8
REMARK    5  A    between atoms: O2_8  and  C7_9
REMARK    6  A    between atoms: C10_12  and  C13_16
REMARK                            x       y       z     vdW  Elec       q    Type
REMARK                         _______ _______ _______ _____ _____    ______ ____
ROOT
ATOM      1  O2  UNL     1     143.962 162.118 167.568  0.00  0.00    +0.000 OA
ENDROOT
BRANCH   1   5
ATOM      2  C3  UNL     1     145.979 158.491 167.176  0.00  0.00    +0.000 A 
ATOM      3  C4  UNL     1     145.907 159.117 168.384  0.00  0.00    +0.000 A 
ATOM      4  C5  UNL     1     145.229 160.324 168.486  0.00  0.00    +0.000 A 
ATOM      5  C6  UNL     1     144.621 160.918 167.413  0.00  0.00    +0.000 A 
ATOM      6  C14 UNL     1     144.703 160.275 166.201  0.00  0.00    +0.000 A 
ATOM      7  C15 UNL     1     145.383 159.057 166.078  0.00  0.00    +0.000 A 
ATOM      8  F2  UNL     1     145.441 158.447 164.857  0.00  0.00    +0.000 F 
BRANCH   2  10
ATOM      9  C1  UNL     1     145.741 156.024 167.119  0.00  0.00    +0.000 C 
ATOM     10  C2  UNL     1     146.680 157.198 166.960  0.00  0.00    +0.000 C 
ENDBRANCH   2  10
BRANCH   4  11
ATOM     11  O1  UNL     1     145.176 160.931 169.727  0.00  0.00    +0.000 OA
ATOM     12  H7  UNL     1     145.946 161.489 170.067  0.00  0.00    +0.000 HD
ENDBRANCH   4  11
ENDBRANCH   1   5
BRANCH   1  13
ATOM     13  C7  UNL     1     144.377 163.351 167.164  0.00  0.00    +0.000 A 
ATOM     14  C8  UNL     1     145.411 164.037 167.803  0.00  0.00    +0.000 A 
ATOM     15  C9  UNL     1     145.792 165.279 167.353  0.00  0.00    +0.000 A 
ATOM     16  C10 UNL     1     145.193 165.900 166.278  0.00  0.00    +0.000 A 
ATOM     17  C11 UNL     1     144.171 165.226 165.645  0.00  0.00    +0.000 A 
ATOM     18  C12 UNL     1     143.770 163.960 166.087  0.00  0.00    +0.000 A 
ATOM     19  F1  UNL     1     142.758 163.350 165.409  0.00  0.00    +0.000 F 
BRANCH  16  20
ATOM     20  C13 UNL     1     145.602 167.218 165.807  0.00  0.00    +0.000 C 
ATOM     21  O3  UNL     1     146.814 167.522 165.672  0.00  0.00    +0.000 OA
ATOM     22  N1  UNL     1     144.625 168.190 165.488  0.00  0.00    +0.000 N 
ATOM     23  H11 UNL     1     144.003 168.018 164.680  0.00  0.00    +0.000 HD
ATOM     24  H12 UNL     1     144.507 169.067 166.028  0.00  0.00    +0.000 HD
ENDBRANCH  16  20
ENDBRANCH   1  13
TORSDOF 5
ENDMDL
MODEL 7
REMARK VINA RESULT:      -5.4      5.131      8.790
REMARK  Name = ./3D_structures\o77_MMV1578564_3D.pdb
REMARK  6 active torsions:
REMARK  status: ('A' for Active; 'I' for Inactive)
REMARK    1  A    between atoms: C1_1  and  C2_2
REMARK    2  A    between atoms: C2_2  and  C3_3
REMARK    3  A    between atoms: C5_5  and  O1_6
REMARK    4  A    between atoms: C6_7  and  O2_8
REMARK    5  A    between atoms: O2_8  and  C7_9
REMARK    6  A    between atoms: C10_12  and  C13_16
REMARK                            x       y       z     vdW  Elec       q    Type
REMARK                         _______ _______ _______ _____ _____    ______ ____
ROOT
ATOM      1  O2  UNL     1     154.960 156.995 167.751  0.00  0.00    +0.000 OA
ENDROOT
BRANCH   1   5
ATOM      2  C3  UNL     1     158.976 157.513 166.764  0.00  0.00    +0.000 A 
ATOM      3  C4  UNL     1     158.125 156.893 165.900  0.00  0.00    +0.000 A 
ATOM      4  C5  UNL     1     156.793 156.733 166.254  0.00  0.00    +0.000 A 
ATOM      5  C6  UNL     1     156.291 157.180 167.448  0.00  0.00    +0.000 A 
ATOM      6  C14 UNL     1     157.163 157.804 168.308  0.00  0.00    +0.000 A 
ATOM      7  C15 UNL     1     158.510 157.974 167.968  0.00  0.00    +0.000 A 
ATOM      8  F2  UNL     1     159.345 158.600 168.850  0.00  0.00    +0.000 F 
BRANCH   2  10
ATOM      9  C1  UNL     1     160.652 159.047 165.768  0.00  0.00    +0.000 C 
ATOM     10  C2  UNL     1     160.420 157.734 166.481  0.00  0.00    +0.000 C 
ENDBRANCH   2  10
BRANCH   4  11
ATOM     11  O1  UNL     1     155.957 156.098 165.354  0.00  0.00    +0.000 OA
ATOM     12  H7  UNL     1     155.974 155.094 165.247  0.00  0.00    +0.000 HD
ENDBRANCH   4  11
ENDBRANCH   1   5
BRANCH   1  13
ATOM     13  C7  UNL     1     154.059 157.941 168.139  0.00  0.00    +0.000 A 
ATOM     14  C8  UNL     1     153.382 157.869 169.358  0.00  0.00    +0.000 A 
ATOM     15  C9  UNL     1     152.483 158.851 169.702  0.00  0.00    +0.000 A 
ATOM     16  C10 UNL     1     152.207 159.929 168.889  0.00  0.00    +0.000 A 
ATOM     17  C11 UNL     1     152.874 160.003 167.685  0.00  0.00    +0.000 A 
ATOM     18  C12 UNL     1     153.793 159.014 167.318  0.00  0.00    +0.000 A 
ATOM     19  F1  UNL     1     154.420 159.155 166.115  0.00  0.00    +0.000 F 
BRANCH  16  20
ATOM     20  C13 UNL     1     151.252 160.966 169.261  0.00  0.00    +0.000 C 
ATOM     21  O3  UNL     1     150.333 160.749 170.090  0.00  0.00    +0.000 OA
ATOM     22  N1  UNL     1     151.347 162.255 168.685  0.00  0.00    +0.000 N 
ATOM     23  H11 UNL     1     152.173 162.837 168.910  0.00  0.00    +0.000 HD
ATOM     24  H12 UNL     1     150.625 162.642 168.049  0.00  0.00    +0.000 HD
ENDBRANCH  16  20
ENDBRANCH   1  13
TORSDOF 5
ENDMDL
MODEL 8
REMARK VINA RESULT:      -5.3      4.362      5.897
REMARK  Name = ./3D_structures\o77_MMV1578564_3D.pdb
REMARK  6 active torsions:
REMARK  status: ('A' for Active; 'I' for Inactive)
REMARK    1  A    between atoms: C1_1  and  C2_2
REMARK    2  A    between atoms: C2_2  and  C3_3
REMARK    3  A    between atoms: C5_5  and  O1_6
REMARK    4  A    between atoms: C6_7  and  O2_8
REMARK    5  A    between atoms: O2_8  and  C7_9
REMARK    6  A    between atoms: C10_12  and  C13_16
REMARK                            x       y       z     vdW  Elec       q    Type
REMARK                         _______ _______ _______ _____ _____    ______ ____
ROOT
ATOM      1  O2  UNL     1     158.346 157.500 165.828  0.00  0.00    +0.000 OA
ENDROOT
BRANCH   1   5
ATOM      2  C3  UNL     1     157.905 158.283 169.898  0.00  0.00    +0.000 A 
ATOM      3  C4  UNL     1     158.948 158.811 169.200  0.00  0.00    +0.000 A 
ATOM      4  C5  UNL     1     159.072 158.534 167.846  0.00  0.00    +0.000 A 
ATOM      5  C6  UNL     1     158.177 157.745 167.173  0.00  0.00    +0.000 A 
ATOM      6  C14 UNL     1     157.129 157.219 167.891  0.00  0.00    +0.000 A 
ATOM      7  C15 UNL     1     156.989 157.487 169.258  0.00  0.00    +0.000 A 
ATOM      8  F2  UNL     1     155.933 156.947 169.938  0.00  0.00    +0.000 F 
BRANCH   2  10
ATOM      9  C1  UNL     1     156.937 159.809 171.596  0.00  0.00    +0.000 C 
ATOM     10  C2  UNL     1     157.682 158.517 171.350  0.00  0.00    +0.000 C 
ENDBRANCH   2  10
BRANCH   4  11
ATOM     11  O1  UNL     1     160.143 159.086 167.169  0.00  0.00    +0.000 OA
ATOM     12  H7  UNL     1     160.056 159.378 166.206  0.00  0.00    +0.000 HD
ENDBRANCH   4  11
ENDBRANCH   1   5
BRANCH   1  13
ATOM     13  C7  UNL     1     158.753 156.340 165.240  0.00  0.00    +0.000 A 
ATOM     14  C8  UNL     1     160.093 156.085 164.943  0.00  0.00    +0.000 A 
ATOM     15  C9  UNL     1     160.450 154.896 164.350  0.00  0.00    +0.000 A 
ATOM     16  C10 UNL     1     159.534 153.918 164.026  0.00  0.00    +0.000 A 
ATOM     17  C11 UNL     1     158.211 154.167 164.319  0.00  0.00    +0.000 A 
ATOM     18  C12 UNL     1     157.828 155.370 164.922  0.00  0.00    +0.000 A 
ATOM     19  F1  UNL     1     156.502 155.545 165.189  0.00  0.00    +0.000 F 
BRANCH  16  20
ATOM     20  C13 UNL     1     159.921 152.661 163.398  0.00  0.00    +0.000 C 
ATOM     21  O3  UNL     1     159.394 152.270 162.326  0.00  0.00    +0.000 OA
ATOM     22  N1  UNL     1     160.912 151.847 163.996  0.00  0.00    +0.000 N 
ATOM     23  H11 UNL     1     161.882 152.204 164.041  0.00  0.00    +0.000 HD
ATOM     24  H12 UNL     1     160.708 150.910 164.389  0.00  0.00    +0.000 HD
ENDBRANCH  16  20
ENDBRANCH   1  13
TORSDOF 5
ENDMDL
MODEL 9
REMARK VINA RESULT:      -5.2     17.950     19.154
REMARK  Name = ./3D_structures\o77_MMV1578564_3D.pdb
REMARK  6 active torsions:
REMARK  status: ('A' for Active; 'I' for Inactive)
REMARK    1  A    between atoms: C1_1  and  C2_2
REMARK    2  A    between atoms: C2_2  and  C3_3
REMARK    3  A    between atoms: C5_5  and  O1_6
REMARK    4  A    between atoms: C6_7  and  O2_8
REMARK    5  A    between atoms: O2_8  and  C7_9
REMARK    6  A    between atoms: C10_12  and  C13_16
REMARK                            x       y       z     vdW  Elec       q    Type
REMARK                         _______ _______ _______ _____ _____    ______ ____
ROOT
ATOM      1  O2  UNL     1     168.053 141.257 164.264  0.00  0.00    +0.000 OA
ENDROOT
BRANCH   1   5
ATOM      2  C3  UNL     1     164.923 139.539 162.113  0.00  0.00    +0.000 A 
ATOM      3  C4  UNL     1     166.204 139.460 161.656  0.00  0.00    +0.000 A 
ATOM      4  C5  UNL     1     167.227 140.042 162.391  0.00  0.00    +0.000 A 
ATOM      5  C6  UNL     1     167.002 140.697 163.573  0.00  0.00    +0.000 A 
ATOM      6  C14 UNL     1     165.704 140.767 164.022  0.00  0.00    +0.000 A 
ATOM      7  C15 UNL     1     164.659 140.187 163.292  0.00  0.00    +0.000 A 
ATOM      8  F2  UNL     1     163.382 140.278 163.772  0.00  0.00    +0.000 F 
BRANCH   2  10
ATOM      9  C1  UNL     1     164.090 138.626 159.964  0.00  0.00    +0.000 C 
ATOM     10  C2  UNL     1     163.757 138.951 161.402  0.00  0.00    +0.000 C 
ENDBRANCH   2  10
BRANCH   4  11
ATOM     11  O1  UNL     1     168.514 139.943 161.897  0.00  0.00    +0.000 OA
ATOM     12  H7  UNL     1     168.770 139.207 161.255  0.00  0.00    +0.000 HD
ENDBRANCH   4  11
ENDBRANCH   1   5
BRANCH   1  13
ATOM     13  C7  UNL     1     168.204 141.346 165.615  0.00  0.00    +0.000 A 
ATOM     14  C8  UNL     1     168.234 140.220 166.438  0.00  0.00    +0.000 A 
ATOM     15  C9  UNL     1     168.389 140.366 167.797  0.00  0.00    +0.000 A 
ATOM     16  C10 UNL     1     168.521 141.596 168.405  0.00  0.00    +0.000 A 
ATOM     17  C11 UNL     1     168.492 142.710 167.596  0.00  0.00    +0.000 A 
ATOM     18  C12 UNL     1     168.335 142.582 166.211  0.00  0.00    +0.000 A 
ATOM     19  F1  UNL     1     168.323 143.727 165.471  0.00  0.00    +0.000 F 
BRANCH  16  20
ATOM     20  C13 UNL     1     168.685 141.742 169.846  0.00  0.00    +0.000 C 
ATOM     21  O3  UNL     1     168.975 140.763 170.580  0.00  0.00    +0.000 OA
ATOM     22  N1  UNL     1     168.519 143.010 170.452  0.00  0.00    +0.000 N 
ATOM     23  H11 UNL     1     169.199 143.757 170.228  0.00  0.00    +0.000 HD
ATOM     24  H12 UNL     1     167.747 143.222 171.111  0.00  0.00    +0.000 HD
ENDBRANCH  16  20
ENDBRANCH   1  13
TORSDOF 5
ENDMDL
