MODEL 1
REMARK VINA RESULT:      -6.9      0.000      0.000
REMARK  Name = ./3D_structures\o8_MMV689758_3D.pdb
REMARK  12 active torsions:
REMARK  status: ('A' for Active; 'I' for Inactive)
REMARK    1  A    between atoms: C1_1  and  O1_2
REMARK    2  A    between atoms: O1_2  and  C2_3
REMARK    3  A    between atoms: C10_13  and  C11_14
REMARK    4  A    between atoms: C11_14  and  C12_15
REMARK    5  A    between atoms: C11_14  and  C18_21
REMARK    6  A    between atoms: C18_21  and  O2_22
REMARK    7  A    between atoms: C18_21  and  C19_23
REMARK    8  A    between atoms: C18_21  and  C23_28
REMARK    9  A    between atoms: C19_23  and  C20_24
REMARK   10  A    between atoms: C20_24  and  N2_25
REMARK   11  A    between atoms: N2_25  and  C21_26
REMARK   12  A    between atoms: N2_25  and  C22_27
REMARK                            x       y       z     vdW  Elec       q    Type
REMARK                         _______ _______ _______ _____ _____    ______ ____
ROOT
ATOM      1  C11 UNL     1     157.354 158.413 167.155  0.00  0.00    +0.000 C 
ENDROOT
BRANCH   1  12
ATOM      2  C2  UNL     1     154.839 158.462 166.902  0.00  0.00    +0.000 A 
ATOM      3  N1  UNL     1     153.766 159.169 166.414  0.00  0.00    +0.000 NA
ATOM      4  C3  UNL     1     153.868 160.331 165.768  0.00  0.00    +0.000 A 
ATOM      5  C4  UNL     1     152.777 161.023 165.285  0.00  0.00    +0.000 A 
ATOM      6  C5  UNL     1     152.895 162.224 164.619  0.00  0.00    +0.000 A 
ATOM      7  C6  UNL     1     154.134 162.791 164.405  0.00  0.00    +0.000 A 
ATOM      8 BR1  UNL     1     154.298 164.458 163.481  0.00  0.00    +0.000 Br
ATOM      9  C7  UNL     1     155.233 162.113 164.881  0.00  0.00    +0.000 A 
ATOM     10  C8  UNL     1     155.103 160.904 165.551  0.00  0.00    +0.000 A 
ATOM     11  C9  UNL     1     156.182 160.216 166.029  0.00  0.00    +0.000 A 
ATOM     12  C10 UNL     1     156.067 158.975 166.718  0.00  0.00    +0.000 A 
BRANCH   2  14
ATOM     13  C1  UNL     1     154.028 157.240 168.817  0.00  0.00    +0.000 C 
ATOM     14  O1  UNL     1     154.575 157.265 167.553  0.00  0.00    +0.000 OA
ENDBRANCH   2  14
ENDBRANCH   1  12
BRANCH   1  15
ATOM     15  C12 UNL     1     157.767 157.500 166.001  0.00  0.00    +0.000 A 
ATOM     16  C13 UNL     1     158.027 156.186 166.213  0.00  0.00    +0.000 A 
ATOM     17  C14 UNL     1     158.339 155.373 165.113  0.00  0.00    +0.000 A 
ATOM     18  C15 UNL     1     158.391 155.862 163.827  0.00  0.00    +0.000 A 
ATOM     19  C16 UNL     1     158.125 157.202 163.620  0.00  0.00    +0.000 A 
ATOM     20  C17 UNL     1     157.820 157.989 164.700  0.00  0.00    +0.000 A 
ENDBRANCH   1  15
BRANCH   1  21
ATOM     21  C18 UNL     1     158.459 159.055 167.761  0.00  0.00    +0.000 C 
BRANCH  21  22
ATOM     22  C23 UNL     1     158.244 160.041 168.887  0.00  0.00    +0.000 A 
ATOM     23  C24 UNL     1     158.712 161.337 168.710  0.00  0.00    +0.000 A 
ATOM     24  C25 UNL     1     158.503 162.310 169.661  0.00  0.00    +0.000 A 
ATOM     25  C26 UNL     1     157.816 162.035 170.833  0.00  0.00    +0.000 A 
ATOM     26  C27 UNL     1     157.347 160.754 171.029  0.00  0.00    +0.000 A 
ATOM     27  C28 UNL     1     156.697 160.462 172.224  0.00  0.00    +0.000 A 
ATOM     28  C29 UNL     1     156.259 159.180 172.471  0.00  0.00    +0.000 A 
ATOM     29  C30 UNL     1     156.470 158.203 171.535  0.00  0.00    +0.000 A 
ATOM     30  C31 UNL     1     157.126 158.533 170.345  0.00  0.00    +0.000 A 
ATOM     31  C32 UNL     1     157.575 159.784 170.049  0.00  0.00    +0.000 A 
ENDBRANCH  21  22
BRANCH  21  32
ATOM     32  O2  UNL     1     159.237 158.031 168.535  0.00  0.00    +0.000 OA
ATOM     33  H14 UNL     1     159.434 158.507 169.365  0.00  0.00    +0.000 HD
ENDBRANCH  21  32
BRANCH  21  34
ATOM     34  C19 UNL     1     159.663 159.528 166.961  0.00  0.00    +0.000 C 
BRANCH  34  35
ATOM     35  C20 UNL     1     161.003 159.046 167.372  0.00  0.00    +0.000 C 
BRANCH  35  36
ATOM     36  N2  UNL     1     161.355 157.802 166.621  0.00  0.00    +0.000 NA
ATOM     37  C21 UNL     1     161.434 158.121 165.207  0.00  0.00    +0.000 C 
ATOM     38  C22 UNL     1     162.603 157.269 167.068  0.00  0.00    +0.000 C 
ENDBRANCH  35  36
ENDBRANCH  34  35
ENDBRANCH  21  34
ENDBRANCH   1  21
TORSDOF 9
ENDMDL
MODEL 2
REMARK VINA RESULT:      -6.7      4.948      7.759
REMARK  Name = ./3D_structures\o8_MMV689758_3D.pdb
REMARK  12 active torsions:
REMARK  status: ('A' for Active; 'I' for Inactive)
REMARK    1  A    between atoms: C1_1  and  O1_2
REMARK    2  A    between atoms: O1_2  and  C2_3
REMARK    3  A    between atoms: C10_13  and  C11_14
REMARK    4  A    between atoms: C11_14  and  C12_15
REMARK    5  A    between atoms: C11_14  and  C18_21
REMARK    6  A    between atoms: C18_21  and  O2_22
REMARK    7  A    between atoms: C18_21  and  C19_23
REMARK    8  A    between atoms: C18_21  and  C23_28
REMARK    9  A    between atoms: C19_23  and  C20_24
REMARK   10  A    between atoms: C20_24  and  N2_25
REMARK   11  A    between atoms: N2_25  and  C21_26
REMARK   12  A    between atoms: N2_25  and  C22_27
REMARK                            x       y       z     vdW  Elec       q    Type
REMARK                         _______ _______ _______ _____ _____    ______ ____
ROOT
ATOM      1  C11 UNL     1     152.035 161.155 169.987  0.00  0.00    +0.000 C 
ENDROOT
BRANCH   1  12
ATOM      2  C2  UNL     1     151.353 163.435 170.842  0.00  0.00    +0.000 A 
ATOM      3  N1  UNL     1     150.370 164.395 170.838  0.00  0.00    +0.000 NA
ATOM      4  C3  UNL     1     149.215 164.279 170.184  0.00  0.00    +0.000 A 
ATOM      5  C4  UNL     1     148.241 165.256 170.195  0.00  0.00    +0.000 A 
ATOM      6  C5  UNL     1     147.050 165.124 169.513  0.00  0.00    +0.000 A 
ATOM      7  C6  UNL     1     146.780 163.988 168.780  0.00  0.00    +0.000 A 
ATOM      8 BR1  UNL     1     145.128 163.806 167.834  0.00  0.00    +0.000 Br
ATOM      9  C7  UNL     1     147.742 163.004 168.758  0.00  0.00    +0.000 A 
ATOM     10  C8  UNL     1     148.939 163.146 169.448  0.00  0.00    +0.000 A 
ATOM     11  C9  UNL     1     149.904 162.180 169.439  0.00  0.00    +0.000 A 
ATOM     12  C10 UNL     1     151.137 162.309 170.141  0.00  0.00    +0.000 A 
BRANCH   2  14
ATOM     13  C1  UNL     1     152.579 163.420 172.919  0.00  0.00    +0.000 C 
ATOM     14  O1  UNL     1     152.505 163.698 171.572  0.00  0.00    +0.000 OA
ENDBRANCH   2  14
ENDBRANCH   1  12
BRANCH   1  15
ATOM     15  C12 UNL     1     151.150 159.953 170.315  0.00  0.00    +0.000 A 
ATOM     16  C13 UNL     1     150.302 159.440 169.389  0.00  0.00    +0.000 A 
ATOM     17  C14 UNL     1     149.557 158.297 169.715  0.00  0.00    +0.000 A 
ATOM     18  C15 UNL     1     149.656 157.677 170.941  0.00  0.00    +0.000 A 
ATOM     19  C16 UNL     1     150.522 158.207 171.878  0.00  0.00    +0.000 A 
ATOM     20  C17 UNL     1     151.246 159.325 171.552  0.00  0.00    +0.000 A 
ENDBRANCH   1  15
BRANCH   1  21
ATOM     21  C18 UNL     1     152.976 160.874 168.969  0.00  0.00    +0.000 C 
BRANCH  21  22
ATOM     22  C23 UNL     1     153.820 159.622 169.036  0.00  0.00    +0.000 A 
ATOM     23  C24 UNL     1     153.735 158.727 167.976  0.00  0.00    +0.000 A 
ATOM     24  C25 UNL     1     154.517 157.594 167.932  0.00  0.00    +0.000 A 
ATOM     25  C26 UNL     1     155.419 157.302 168.943  0.00  0.00    +0.000 A 
ATOM     26  C27 UNL     1     155.515 158.176 170.005  0.00  0.00    +0.000 A 
ATOM     27  C28 UNL     1     156.386 157.864 171.043  0.00  0.00    +0.000 A 
ATOM     28  C29 UNL     1     156.470 158.691 172.140  0.00  0.00    +0.000 A 
ATOM     29  C30 UNL     1     155.691 159.816 172.198  0.00  0.00    +0.000 A 
ATOM     30  C31 UNL     1     154.827 160.098 171.135  0.00  0.00    +0.000 A 
ATOM     31  C32 UNL     1     154.709 159.318 170.027  0.00  0.00    +0.000 A 
ENDBRANCH  21  22
BRANCH  21  32
ATOM     32  O2  UNL     1     152.228 160.546 167.709  0.00  0.00    +0.000 OA
ATOM     33  H14 UNL     1     152.872 160.794 167.018  0.00  0.00    +0.000 HD
ENDBRANCH  21  32
BRANCH  21  34
ATOM     34  C19 UNL     1     153.818 161.961 168.318  0.00  0.00    +0.000 C 
BRANCH  34  35
ATOM     35  C20 UNL     1     153.494 162.351 166.926  0.00  0.00    +0.000 C 
BRANCH  35  36
ATOM     36  N2  UNL     1     152.391 163.359 166.916  0.00  0.00    +0.000 NA
ATOM     37  C21 UNL     1     152.838 164.542 167.629  0.00  0.00    +0.000 C 
ATOM     38  C22 UNL     1     152.024 163.707 165.581  0.00  0.00    +0.000 C 
ENDBRANCH  35  36
ENDBRANCH  34  35
ENDBRANCH  21  34
ENDBRANCH   1  21
TORSDOF 9
ENDMDL
MODEL 3
REMARK VINA RESULT:      -6.5      3.235      6.627
REMARK  Name = ./3D_structures\o8_MMV689758_3D.pdb
REMARK  12 active torsions:
REMARK  status: ('A' for Active; 'I' for Inactive)
REMARK    1  A    between atoms: C1_1  and  O1_2
REMARK    2  A    between atoms: O1_2  and  C2_3
REMARK    3  A    between atoms: C10_13  and  C11_14
REMARK    4  A    between atoms: C11_14  and  C12_15
REMARK    5  A    between atoms: C11_14  and  C18_21
REMARK    6  A    between atoms: C18_21  and  O2_22
REMARK    7  A    between atoms: C18_21  and  C19_23
REMARK    8  A    between atoms: C18_21  and  C23_28
REMARK    9  A    between atoms: C19_23  and  C20_24
REMARK   10  A    between atoms: C20_24  and  N2_25
REMARK   11  A    between atoms: N2_25  and  C21_26
REMARK   12  A    between atoms: N2_25  and  C22_27
REMARK                            x       y       z     vdW  Elec       q    Type
REMARK                         _______ _______ _______ _____ _____    ______ ____
ROOT
ATOM      1  C11 UNL     1     154.641 159.255 168.292  0.00  0.00    +0.000 C 
ENDROOT
BRANCH   1  12
ATOM      2  C2  UNL     1     155.968 160.059 166.296  0.00  0.00    +0.000 A 
ATOM      3  N1  UNL     1     156.731 159.678 165.219  0.00  0.00    +0.000 NA
ATOM      4  C3  UNL     1     157.008 158.411 164.910  0.00  0.00    +0.000 A 
ATOM      5  C4  UNL     1     157.776 158.050 163.823  0.00  0.00    +0.000 A 
ATOM      6  C5  UNL     1     158.055 156.737 163.514  0.00  0.00    +0.000 A 
ATOM      7  C6  UNL     1     157.567 155.710 164.296  0.00  0.00    +0.000 A 
ATOM      8 BR1  UNL     1     157.954 153.887 163.868  0.00  0.00    +0.000 Br
ATOM      9  C7  UNL     1     156.798 156.053 165.385  0.00  0.00    +0.000 A 
ATOM     10  C8  UNL     1     156.523 157.380 165.687  0.00  0.00    +0.000 A 
ATOM     11  C9  UNL     1     155.761 157.739 166.762  0.00  0.00    +0.000 A 
ATOM     12  C10 UNL     1     155.469 159.095 167.088  0.00  0.00    +0.000 A 
BRANCH   2  14
ATOM     13  C1  UNL     1     155.698 162.293 165.427  0.00  0.00    +0.000 C 
ATOM     14  O1  UNL     1     155.765 161.420 166.489  0.00  0.00    +0.000 OA
ENDBRANCH   2  14
ENDBRANCH   1  12
BRANCH   1  15
ATOM     15  C12 UNL     1     155.641 159.147 169.443  0.00  0.00    +0.000 A 
ATOM     16  C13 UNL     1     156.584 160.103 169.637  0.00  0.00    +0.000 A 
ATOM     17  C14 UNL     1     157.438 159.994 170.744  0.00  0.00    +0.000 A 
ATOM     18  C15 UNL     1     157.352 158.953 171.642  0.00  0.00    +0.000 A 
ATOM     19  C16 UNL     1     156.389 157.985 171.437  0.00  0.00    +0.000 A 
ATOM     20  C17 UNL     1     155.558 158.098 170.352  0.00  0.00    +0.000 A 
ENDBRANCH   1  15
BRANCH   1  21
ATOM     21  C18 UNL     1     153.605 160.181 168.558  0.00  0.00    +0.000 C 
BRANCH  21  22
ATOM     22  C23 UNL     1     152.948 160.219 169.919  0.00  0.00    +0.000 A 
ATOM     23  C24 UNL     1     153.178 161.333 170.718  0.00  0.00    +0.000 A 
ATOM     24  C25 UNL     1     152.568 161.472 171.944  0.00  0.00    +0.000 A 
ATOM     25  C26 UNL     1     151.700 160.508 172.430  0.00  0.00    +0.000 A 
ATOM     26  C27 UNL     1     151.462 159.393 171.654  0.00  0.00    +0.000 A 
ATOM     27  C28 UNL     1     150.626 158.402 172.158  0.00  0.00    +0.000 A 
ATOM     28  C29 UNL     1     150.406 157.255 171.429  0.00  0.00    +0.000 A 
ATOM     29  C30 UNL     1     151.015 157.102 170.212  0.00  0.00    +0.000 A 
ATOM     30  C31 UNL     1     151.847 158.121 169.737  0.00  0.00    +0.000 A 
ATOM     31  C32 UNL     1     152.095 159.274 170.414  0.00  0.00    +0.000 A 
ENDBRANCH  21  22
BRANCH  21  32
ATOM     32  O2  UNL     1     154.196 161.561 168.580  0.00  0.00    +0.000 OA
ATOM     33  H14 UNL     1     155.137 161.378 168.767  0.00  0.00    +0.000 HD
ENDBRANCH  21  32
BRANCH  21  34
ATOM     34  C19 UNL     1     152.543 160.530 167.526  0.00  0.00    +0.000 C 
BRANCH  34  35
ATOM     35  C20 UNL     1     152.333 161.961 167.204  0.00  0.00    +0.000 C 
BRANCH  35  36
ATOM     36  N2  UNL     1     151.730 162.100 165.843  0.00  0.00    +0.000 NA
ATOM     37  C21 UNL     1     152.086 163.401 165.308  0.00  0.00    +0.000 C 
ATOM     38  C22 UNL     1     152.197 161.072 164.968  0.00  0.00    +0.000 C 
ENDBRANCH  35  36
ENDBRANCH  34  35
ENDBRANCH  21  34
ENDBRANCH   1  21
TORSDOF 9
ENDMDL
MODEL 4
REMARK VINA RESULT:      -6.3      3.062      6.360
REMARK  Name = ./3D_structures\o8_MMV689758_3D.pdb
REMARK  12 active torsions:
REMARK  status: ('A' for Active; 'I' for Inactive)
REMARK    1  A    between atoms: C1_1  and  O1_2
REMARK    2  A    between atoms: O1_2  and  C2_3
REMARK    3  A    between atoms: C10_13  and  C11_14
REMARK    4  A    between atoms: C11_14  and  C12_15
REMARK    5  A    between atoms: C11_14  and  C18_21
REMARK    6  A    between atoms: C18_21  and  O2_22
REMARK    7  A    between atoms: C18_21  and  C19_23
REMARK    8  A    between atoms: C18_21  and  C23_28
REMARK    9  A    between atoms: C19_23  and  C20_24
REMARK   10  A    between atoms: C20_24  and  N2_25
REMARK   11  A    between atoms: N2_25  and  C21_26
REMARK   12  A    between atoms: N2_25  and  C22_27
REMARK                            x       y       z     vdW  Elec       q    Type
REMARK                         _______ _______ _______ _____ _____    ______ ____
ROOT
ATOM      1  C11 UNL     1     157.876 159.159 165.830  0.00  0.00    +0.000 C 
ENDROOT
BRANCH   1  12
ATOM      2  C2  UNL     1     158.052 158.393 163.427  0.00  0.00    +0.000 A 
ATOM      3  N1  UNL     1     158.196 157.310 162.594  0.00  0.00    +0.000 NA
ATOM      4  C3  UNL     1     158.298 156.050 163.018  0.00  0.00    +0.000 A 
ATOM      5  C4  UNL     1     158.442 154.977 162.165  0.00  0.00    +0.000 A 
ATOM      6  C5  UNL     1     158.547 153.679 162.615  0.00  0.00    +0.000 A 
ATOM      7  C6  UNL     1     158.511 153.396 163.965  0.00  0.00    +0.000 A 
ATOM      8 BR1  UNL     1     158.657 151.595 164.590  0.00  0.00    +0.000 Br
ATOM      9  C7  UNL     1     158.368 154.457 164.831  0.00  0.00    +0.000 A 
ATOM     10  C8  UNL     1     158.264 155.761 164.366  0.00  0.00    +0.000 A 
ATOM     11  C9  UNL     1     158.121 156.825 165.210  0.00  0.00    +0.000 A 
ATOM     12  C10 UNL     1     158.012 158.169 164.752  0.00  0.00    +0.000 A 
BRANCH   2  14
ATOM     13  C1  UNL     1     157.698 159.790 161.493  0.00  0.00    +0.000 C 
ATOM     14  O1  UNL     1     157.957 159.647 162.838  0.00  0.00    +0.000 OA
ENDBRANCH   2  14
ENDBRANCH   1  12
BRANCH   1  15
ATOM     15  C12 UNL     1     156.381 159.480 165.848  0.00  0.00    +0.000 A 
ATOM     16  C13 UNL     1     155.923 160.687 165.431  0.00  0.00    +0.000 A 
ATOM     17  C14 UNL     1     154.539 160.912 165.405  0.00  0.00    +0.000 A 
ATOM     18  C15 UNL     1     153.629 159.952 165.787  0.00  0.00    +0.000 A 
ATOM     19  C16 UNL     1     154.104 158.725 166.210  0.00  0.00    +0.000 A 
ATOM     20  C17 UNL     1     155.458 158.513 166.233  0.00  0.00    +0.000 A 
ENDBRANCH   1  15
BRANCH   1  21
ATOM     21  C18 UNL     1     158.448 159.169 167.124  0.00  0.00    +0.000 C 
BRANCH  21  22
ATOM     22  C23 UNL     1     159.814 159.776 167.348  0.00  0.00    +0.000 A 
ATOM     23  C24 UNL     1     159.872 161.091 167.794  0.00  0.00    +0.000 A 
ATOM     24  C25 UNL     1     161.074 161.696 168.081  0.00  0.00    +0.000 A 
ATOM     25  C26 UNL     1     162.274 161.019 167.937  0.00  0.00    +0.000 A 
ATOM     26  C27 UNL     1     162.238 159.714 167.492  0.00  0.00    +0.000 A 
ATOM     27  C28 UNL     1     163.443 159.045 167.302  0.00  0.00    +0.000 A 
ATOM     28  C29 UNL     1     163.442 157.758 166.813  0.00  0.00    +0.000 A 
ATOM     29  C30 UNL     1     162.253 157.149 166.516  0.00  0.00    +0.000 A 
ATOM     30  C31 UNL     1     161.061 157.853 166.721  0.00  0.00    +0.000 A 
ATOM     31  C32 UNL     1     161.005 159.123 167.205  0.00  0.00    +0.000 A 
ENDBRANCH  21  22
BRANCH  21  32
ATOM     32  O2  UNL     1     157.662 160.115 167.984  0.00  0.00    +0.000 OA
ATOM     33  H14 UNL     1     157.592 159.620 168.823  0.00  0.00    +0.000 HD
ENDBRANCH  21  32
BRANCH  21  34
ATOM     34  C19 UNL     1     158.303 157.998 168.085  0.00  0.00    +0.000 C 
BRANCH  34  35
ATOM     35  C20 UNL     1     158.179 158.298 169.531  0.00  0.00    +0.000 C 
BRANCH  35  36
ATOM     36  N2  UNL     1     156.744 158.242 169.947  0.00  0.00    +0.000 NA
ATOM     37  C21 UNL     1     156.167 157.003 169.457  0.00  0.00    +0.000 C 
ATOM     38  C22 UNL     1     156.620 158.305 171.369  0.00  0.00    +0.000 C 
ENDBRANCH  35  36
ENDBRANCH  34  35
ENDBRANCH  21  34
ENDBRANCH   1  21
TORSDOF 9
ENDMDL
MODEL 5
REMARK VINA RESULT:      -6.2      2.905      7.600
REMARK  Name = ./3D_structures\o8_MMV689758_3D.pdb
REMARK  12 active torsions:
REMARK  status: ('A' for Active; 'I' for Inactive)
REMARK    1  A    between atoms: C1_1  and  O1_2
REMARK    2  A    between atoms: O1_2  and  C2_3
REMARK    3  A    between atoms: C10_13  and  C11_14
REMARK    4  A    between atoms: C11_14  and  C12_15
REMARK    5  A    between atoms: C11_14  and  C18_21
REMARK    6  A    between atoms: C18_21  and  O2_22
REMARK    7  A    between atoms: C18_21  and  C19_23
REMARK    8  A    between atoms: C18_21  and  C23_28
REMARK    9  A    between atoms: C19_23  and  C20_24
REMARK   10  A    between atoms: C20_24  and  N2_25
REMARK   11  A    between atoms: N2_25  and  C21_26
REMARK   12  A    between atoms: N2_25  and  C22_27
REMARK                            x       y       z     vdW  Elec       q    Type
REMARK                         _______ _______ _______ _____ _____    ______ ____
ROOT
ATOM      1  C11 UNL     1     155.148 158.853 170.382  0.00  0.00    +0.000 C 
ENDROOT
BRANCH   1  12
ATOM      2  C2  UNL     1     157.294 158.387 169.130  0.00  0.00    +0.000 A 
ATOM      3  N1  UNL     1     158.516 158.892 168.755  0.00  0.00    +0.000 NA
ATOM      4  C3  UNL     1     158.955 160.107 169.083  0.00  0.00    +0.000 A 
ATOM      5  C4  UNL     1     160.186 160.594 168.697  0.00  0.00    +0.000 A 
ATOM      6  C5  UNL     1     160.628 161.853 169.043  0.00  0.00    +0.000 A 
ATOM      7  C6  UNL     1     159.842 162.692 169.805  0.00  0.00    +0.000 A 
ATOM      8 BR1  UNL     1     160.455 164.438 170.284  0.00  0.00    +0.000 Br
ATOM      9  C7  UNL     1     158.609 162.220 170.199  0.00  0.00    +0.000 A 
ATOM     10  C8  UNL     1     158.173 160.951 169.845  0.00  0.00    +0.000 A 
ATOM     11  C9  UNL     1     156.955 160.466 170.228  0.00  0.00    +0.000 A 
ATOM     12  C10 UNL     1     156.491 159.167 169.874  0.00  0.00    +0.000 A 
BRANCH   2  14
ATOM     13  C1  UNL     1     157.132 156.715 167.399  0.00  0.00    +0.000 C 
ATOM     14  O1  UNL     1     156.976 157.101 168.712  0.00  0.00    +0.000 OA
ENDBRANCH   2  14
ENDBRANCH   1  12
BRANCH   1  15
ATOM     15  C12 UNL     1     155.023 159.707 171.643  0.00  0.00    +0.000 A 
ATOM     16  C13 UNL     1     155.589 159.312 172.811  0.00  0.00    +0.000 A 
ATOM     17  C14 UNL     1     155.504 160.160 173.925  0.00  0.00    +0.000 A 
ATOM     18  C15 UNL     1     154.866 161.379 173.875  0.00  0.00    +0.000 A 
ATOM     19  C16 UNL     1     154.292 161.774 172.682  0.00  0.00    +0.000 A 
ATOM     20  C17 UNL     1     154.380 160.940 171.598  0.00  0.00    +0.000 A 
ENDBRANCH   1  15
BRANCH   1  21
ATOM     21  C18 UNL     1     153.924 158.736 169.683  0.00  0.00    +0.000 C 
BRANCH  21  22
ATOM     22  C23 UNL     1     153.764 159.360 168.315  0.00  0.00    +0.000 A 
ATOM     23  C24 UNL     1     154.180 158.621 167.215  0.00  0.00    +0.000 A 
ATOM     24  C25 UNL     1     154.012 159.093 165.932  0.00  0.00    +0.000 A 
ATOM     25  C26 UNL     1     153.422 160.322 165.689  0.00  0.00    +0.000 A 
ATOM     26  C27 UNL     1     153.006 161.072 166.768  0.00  0.00    +0.000 A 
ATOM     27  C28 UNL     1     152.453 162.326 166.531  0.00  0.00    +0.000 A 
ATOM     28  C29 UNL     1     152.072 163.120 167.589  0.00  0.00    +0.000 A 
ATOM     29  C30 UNL     1     152.243 162.664 168.869  0.00  0.00    +0.000 A 
ATOM     30  C31 UNL     1     152.800 161.397 169.070  0.00  0.00    +0.000 A 
ATOM     31  C32 UNL     1     153.189 160.572 168.060  0.00  0.00    +0.000 A 
ENDBRANCH  21  22
BRANCH  21  32
ATOM     32  O2  UNL     1     153.747 157.302 169.273  0.00  0.00    +0.000 OA
ATOM     33  H14 UNL     1     153.356 156.906 170.076  0.00  0.00    +0.000 HD
ENDBRANCH  21  32
BRANCH  21  34
ATOM     34  C19 UNL     1     152.576 158.818 170.385  0.00  0.00    +0.000 C 
BRANCH  34  35
ATOM     35  C20 UNL     1     151.566 157.779 170.073  0.00  0.00    +0.000 C 
BRANCH  35  36
ATOM     36  N2  UNL     1     150.256 158.129 170.702  0.00  0.00    +0.000 NA
ATOM     37  C21 UNL     1     149.206 157.957 169.714  0.00  0.00    +0.000 C 
ATOM     38  C22 UNL     1     149.994 157.302 171.837  0.00  0.00    +0.000 C 
ENDBRANCH  35  36
ENDBRANCH  34  35
ENDBRANCH  21  34
ENDBRANCH   1  21
TORSDOF 9
ENDMDL
MODEL 6
REMARK VINA RESULT:      -6.2      4.463      6.591
REMARK  Name = ./3D_structures\o8_MMV689758_3D.pdb
REMARK  12 active torsions:
REMARK  status: ('A' for Active; 'I' for Inactive)
REMARK    1  A    between atoms: C1_1  and  O1_2
REMARK    2  A    between atoms: O1_2  and  C2_3
REMARK    3  A    between atoms: C10_13  and  C11_14
REMARK    4  A    between atoms: C11_14  and  C12_15
REMARK    5  A    between atoms: C11_14  and  C18_21
REMARK    6  A    between atoms: C18_21  and  O2_22
REMARK    7  A    between atoms: C18_21  and  C19_23
REMARK    8  A    between atoms: C18_21  and  C23_28
REMARK    9  A    between atoms: C19_23  and  C20_24
REMARK   10  A    between atoms: C20_24  and  N2_25
REMARK   11  A    between atoms: N2_25  and  C21_26
REMARK   12  A    between atoms: N2_25  and  C22_27
REMARK                            x       y       z     vdW  Elec       q    Type
REMARK                         _______ _______ _______ _____ _____    ______ ____
ROOT
ATOM      1  C11 UNL     1     151.845 160.292 168.744  0.00  0.00    +0.000 C 
ENDROOT
BRANCH   1  12
ATOM      2  C2  UNL     1     149.611 161.476 168.762  0.00  0.00    +0.000 A 
ATOM      3  N1  UNL     1     148.935 162.607 169.152  0.00  0.00    +0.000 NA
ATOM      4  C3  UNL     1     149.498 163.629 169.796  0.00  0.00    +0.000 A 
ATOM      5  C4  UNL     1     148.800 164.756 170.178  0.00  0.00    +0.000 A 
ATOM      6  C5  UNL     1     149.394 165.806 170.844  0.00  0.00    +0.000 A 
ATOM      7  C6  UNL     1     150.736 165.772 171.160  0.00  0.00    +0.000 A 
ATOM      8 BR1  UNL     1     151.560 167.230 172.084  0.00  0.00    +0.000 Br
ATOM      9  C7  UNL     1     151.447 164.654 170.785  0.00  0.00    +0.000 A 
ATOM     10  C8  UNL     1     150.839 163.601 170.115  0.00  0.00    +0.000 A 
ATOM     11  C9  UNL     1     151.529 162.485 169.735  0.00  0.00    +0.000 A 
ATOM     12  C10 UNL     1     150.922 161.395 169.048  0.00  0.00    +0.000 A 
BRANCH   2  14
ATOM     13  C1  UNL     1     147.564 160.677 167.768  0.00  0.00    +0.000 C 
ATOM     14  O1  UNL     1     148.888 160.494 168.097  0.00  0.00    +0.000 OA
ENDBRANCH   2  14
ENDBRANCH   1  12
BRANCH   1  15
ATOM     15  C12 UNL     1     152.730 160.850 167.630  0.00  0.00    +0.000 A 
ATOM     16  C13 UNL     1     152.416 160.651 166.325  0.00  0.00    +0.000 A 
ATOM     17  C14 UNL     1     153.222 161.237 165.339  0.00  0.00    +0.000 A 
ATOM     18  C15 UNL     1     154.322 162.007 165.647  0.00  0.00    +0.000 A 
ATOM     19  C16 UNL     1     154.635 162.204 166.978  0.00  0.00    +0.000 A 
ATOM     20  C17 UNL     1     153.842 161.628 167.936  0.00  0.00    +0.000 A 
ENDBRANCH   1  15
BRANCH   1  21
ATOM     21  C18 UNL     1     152.553 159.440 169.623  0.00  0.00    +0.000 C 
BRANCH  21  22
ATOM     22  C23 UNL     1     152.636 159.765 171.097  0.00  0.00    +0.000 A 
ATOM     23  C24 UNL     1     151.509 159.533 171.876  0.00  0.00    +0.000 A 
ATOM     24  C25 UNL     1     151.523 159.745 173.236  0.00  0.00    +0.000 A 
ATOM     25  C26 UNL     1     152.662 160.198 173.882  0.00  0.00    +0.000 A 
ATOM     26  C27 UNL     1     153.789 160.439 173.127  0.00  0.00    +0.000 A 
ATOM     27  C28 UNL     1     154.921 160.937 173.764  0.00  0.00    +0.000 A 
ATOM     28  C29 UNL     1     156.047 161.233 173.030  0.00  0.00    +0.000 A 
ATOM     29  C30 UNL     1     156.041 161.034 171.675  0.00  0.00    +0.000 A 
ATOM     30  C31 UNL     1     154.886 160.530 171.068  0.00  0.00    +0.000 A 
ATOM     31  C32 UNL     1     153.749 160.218 171.747  0.00  0.00    +0.000 A 
ENDBRANCH  21  22
BRANCH  21  32
ATOM     32  O2  UNL     1     151.796 158.148 169.744  0.00  0.00    +0.000 OA
ATOM     33  H14 UNL     1     151.038 158.406 170.303  0.00  0.00    +0.000 HD
ENDBRANCH  21  32
BRANCH  21  34
ATOM     34  C19 UNL     1     153.859 158.767 169.227  0.00  0.00    +0.000 C 
BRANCH  34  35
ATOM     35  C20 UNL     1     153.805 157.355 168.783  0.00  0.00    +0.000 C 
BRANCH  35  36
ATOM     36  N2  UNL     1     154.949 157.059 167.867  0.00  0.00    +0.000 NA
ATOM     37  C21 UNL     1     154.903 157.988 166.752  0.00  0.00    +0.000 C 
ATOM     38  C22 UNL     1     156.198 157.182 168.548  0.00  0.00    +0.000 C 
ENDBRANCH  35  36
ENDBRANCH  34  35
ENDBRANCH  21  34
ENDBRANCH   1  21
TORSDOF 9
ENDMDL
MODEL 7
REMARK VINA RESULT:      -6.2      4.707      7.665
REMARK  Name = ./3D_structures\o8_MMV689758_3D.pdb
REMARK  12 active torsions:
REMARK  status: ('A' for Active; 'I' for Inactive)
REMARK    1  A    between atoms: C1_1  and  O1_2
REMARK    2  A    between atoms: O1_2  and  C2_3
REMARK    3  A    between atoms: C10_13  and  C11_14
REMARK    4  A    between atoms: C11_14  and  C12_15
REMARK    5  A    between atoms: C11_14  and  C18_21
REMARK    6  A    between atoms: C18_21  and  O2_22
REMARK    7  A    between atoms: C18_21  and  C19_23
REMARK    8  A    between atoms: C18_21  and  C23_28
REMARK    9  A    between atoms: C19_23  and  C20_24
REMARK   10  A    between atoms: C20_24  and  N2_25
REMARK   11  A    between atoms: N2_25  and  C21_26
REMARK   12  A    between atoms: N2_25  and  C22_27
REMARK                            x       y       z     vdW  Elec       q    Type
REMARK                         _______ _______ _______ _____ _____    ______ ____
ROOT
ATOM      1  C11 UNL     1     151.352 160.434 169.071  0.00  0.00    +0.000 C 
ENDROOT
BRANCH   1  12
ATOM      2  C2  UNL     1     150.684 162.619 170.153  0.00  0.00    +0.000 A 
ATOM      3  N1  UNL     1     149.819 163.686 170.103  0.00  0.00    +0.000 NA
ATOM      4  C3  UNL     1     148.855 163.824 169.194  0.00  0.00    +0.000 A 
ATOM      5  C4  UNL     1     147.997 164.904 169.163  0.00  0.00    +0.000 A 
ATOM      6  C5  UNL     1     147.003 165.036 168.217  0.00  0.00    +0.000 A 
ATOM      7  C6  UNL     1     146.823 164.073 167.246  0.00  0.00    +0.000 A 
ATOM      8 BR1  UNL     1     145.444 164.256 165.933  0.00  0.00    +0.000 Br
ATOM      9  C7  UNL     1     147.671 162.989 167.263  0.00  0.00    +0.000 A 
ATOM     10  C8  UNL     1     148.669 162.866 168.220  0.00  0.00    +0.000 A 
ATOM     11  C9  UNL     1     149.518 161.797 168.253  0.00  0.00    +0.000 A 
ATOM     12  C10 UNL     1     150.548 161.655 169.227  0.00  0.00    +0.000 A 
BRANCH   2  14
ATOM     13  C1  UNL     1     152.115 163.786 171.704  0.00  0.00    +0.000 C 
ATOM     14  O1  UNL     1     151.639 162.614 171.161  0.00  0.00    +0.000 OA
ENDBRANCH   2  14
ENDBRANCH   1  12
BRANCH   1  15
ATOM     15  C12 UNL     1     152.535 160.879 168.212  0.00  0.00    +0.000 A 
ATOM     16  C13 UNL     1     152.742 160.346 166.982  0.00  0.00    +0.000 A 
ATOM     17  C14 UNL     1     153.802 160.833 166.204  0.00  0.00    +0.000 A 
ATOM     18  C15 UNL     1     154.641 161.833 166.644  0.00  0.00    +0.000 A 
ATOM     19  C16 UNL     1     154.424 162.370 167.898  0.00  0.00    +0.000 A 
ATOM     20  C17 UNL     1     153.385 161.888 168.653  0.00  0.00    +0.000 A 
ENDBRANCH   1  15
BRANCH   1  21
ATOM     21  C18 UNL     1     151.717 159.465 170.035  0.00  0.00    +0.000 C 
BRANCH  21  22
ATOM     22  C23 UNL     1     153.129 159.420 170.575  0.00  0.00    +0.000 A 
ATOM     23  C24 UNL     1     153.410 160.167 171.712  0.00  0.00    +0.000 A 
ATOM     24  C25 UNL     1     154.654 160.132 172.301  0.00  0.00    +0.000 A 
ATOM     25  C26 UNL     1     155.674 159.350 171.783  0.00  0.00    +0.000 A 
ATOM     26  C27 UNL     1     155.415 158.604 170.653  0.00  0.00    +0.000 A 
ATOM     27  C28 UNL     1     156.449 157.852 170.104  0.00  0.00    +0.000 A 
ATOM     28  C29 UNL     1     156.236 157.135 168.949  0.00  0.00    +0.000 A 
ATOM     29  C30 UNL     1     155.005 157.170 168.350  0.00  0.00    +0.000 A 
ATOM     30  C31 UNL     1     153.989 157.935 168.931  0.00  0.00    +0.000 A 
ATOM     31  C32 UNL     1     154.145 158.659 170.073  0.00  0.00    +0.000 A 
ENDBRANCH  21  22
BRANCH  21  32
ATOM     32  O2  UNL     1     151.018 159.790 171.323  0.00  0.00    +0.000 OA
ATOM     33  H14 UNL     1     150.423 159.024 171.433  0.00  0.00    +0.000 HD
ENDBRANCH  21  32
BRANCH  21  34
ATOM     34  C19 UNL     1     151.199 158.035 169.986  0.00  0.00    +0.000 C 
BRANCH  34  35
ATOM     35  C20 UNL     1     150.429 157.535 171.149  0.00  0.00    +0.000 C 
BRANCH  35  36
ATOM     36  N2  UNL     1     148.969 157.778 170.943  0.00  0.00    +0.000 NA
ATOM     37  C21 UNL     1     148.681 157.701 169.522  0.00  0.00    +0.000 C 
ATOM     38  C22 UNL     1     148.184 156.816 171.649  0.00  0.00    +0.000 C 
ENDBRANCH  35  36
ENDBRANCH  34  35
ENDBRANCH  21  34
ENDBRANCH   1  21
TORSDOF 9
ENDMDL
MODEL 8
REMARK VINA RESULT:      -6.1      3.096      5.967
REMARK  Name = ./3D_structures\o8_MMV689758_3D.pdb
REMARK  12 active torsions:
REMARK  status: ('A' for Active; 'I' for Inactive)
REMARK    1  A    between atoms: C1_1  and  O1_2
REMARK    2  A    between atoms: O1_2  and  C2_3
REMARK    3  A    between atoms: C10_13  and  C11_14
REMARK    4  A    between atoms: C11_14  and  C12_15
REMARK    5  A    between atoms: C11_14  and  C18_21
REMARK    6  A    between atoms: C18_21  and  O2_22
REMARK    7  A    between atoms: C18_21  and  C19_23
REMARK    8  A    between atoms: C18_21  and  C23_28
REMARK    9  A    between atoms: C19_23  and  C20_24
REMARK   10  A    between atoms: C20_24  and  N2_25
REMARK   11  A    between atoms: N2_25  and  C21_26
REMARK   12  A    between atoms: N2_25  and  C22_27
REMARK                            x       y       z     vdW  Elec       q    Type
REMARK                         _______ _______ _______ _____ _____    ______ ____
ROOT
ATOM      1  C11 UNL     1     158.128 157.981 166.369  0.00  0.00    +0.000 C 
ENDROOT
BRANCH   1  12
ATOM      2  C2  UNL     1     157.830 157.400 163.927  0.00  0.00    +0.000 A 
ATOM      3  N1  UNL     1     157.835 156.387 162.998  0.00  0.00    +0.000 NA
ATOM      4  C3  UNL     1     158.062 155.107 163.289  0.00  0.00    +0.000 A 
ATOM      5  C4  UNL     1     158.061 154.106 162.341  0.00  0.00    +0.000 A 
ATOM      6  C5  UNL     1     158.298 152.785 162.655  0.00  0.00    +0.000 A 
ATOM      7  C6  UNL     1     158.551 152.404 163.956  0.00  0.00    +0.000 A 
ATOM      8 BR1  UNL     1     158.881 150.572 164.392  0.00  0.00    +0.000 Br
ATOM      9  C7  UNL     1     158.556 153.392 164.915  0.00  0.00    +0.000 A 
ATOM     10  C8  UNL     1     158.315 154.720 164.588  0.00  0.00    +0.000 A 
ATOM     11  C9  UNL     1     158.315 155.712 165.527  0.00  0.00    +0.000 A 
ATOM     12  C10 UNL     1     158.071 157.079 165.209  0.00  0.00    +0.000 A 
BRANCH   2  14
ATOM     13  C1  UNL     1     157.903 159.072 162.191  0.00  0.00    +0.000 C 
ATOM     14  O1  UNL     1     157.576 158.687 163.471  0.00  0.00    +0.000 OA
ENDBRANCH   2  14
ENDBRANCH   1  12
BRANCH   1  15
ATOM     15  C12 UNL     1     159.605 158.361 166.467  0.00  0.00    +0.000 A 
ATOM     16  C13 UNL     1     160.354 157.979 167.532  0.00  0.00    +0.000 A 
ATOM     17  C14 UNL     1     161.720 158.295 167.547  0.00  0.00    +0.000 A 
ATOM     18  C15 UNL     1     162.329 158.981 166.519  0.00  0.00    +0.000 A 
ATOM     19  C16 UNL     1     161.559 159.367 165.438  0.00  0.00    +0.000 A 
ATOM     20  C17 UNL     1     160.224 159.053 165.432  0.00  0.00    +0.000 A 
ENDBRANCH   1  15
BRANCH   1  21
ATOM     21  C18 UNL     1     157.269 159.046 166.727  0.00  0.00    +0.000 C 
BRANCH  21  22
ATOM     22  C23 UNL     1     157.489 159.802 168.018  0.00  0.00    +0.000 A 
ATOM     23  C24 UNL     1     158.024 161.082 167.934  0.00  0.00    +0.000 A 
ATOM     24  C25 UNL     1     158.198 161.859 169.057  0.00  0.00    +0.000 A 
ATOM     25  C26 UNL     1     157.846 161.396 170.314  0.00  0.00    +0.000 A 
ATOM     26  C27 UNL     1     157.316 160.127 170.419  0.00  0.00    +0.000 A 
ATOM     27  C28 UNL     1     157.003 159.642 171.684  0.00  0.00    +0.000 A 
ATOM     28  C29 UNL     1     156.519 158.361 171.826  0.00  0.00    +0.000 A 
ATOM     29  C30 UNL     1     156.350 157.576 170.717  0.00  0.00    +0.000 A 
ATOM     30  C31 UNL     1     156.674 158.099 169.460  0.00  0.00    +0.000 A 
ATOM     31  C32 UNL     1     157.152 159.358 169.264  0.00  0.00    +0.000 A 
ENDBRANCH  21  22
BRANCH  21  32
ATOM     32  O2  UNL     1     157.508 160.187 165.781  0.00  0.00    +0.000 OA
ATOM     33  H14 UNL     1     158.007 160.814 166.338  0.00  0.00    +0.000 HD
ENDBRANCH  21  32
BRANCH  21  34
ATOM     34  C19 UNL     1     155.770 159.001 166.471  0.00  0.00    +0.000 C 
BRANCH  34  35
ATOM     35  C20 UNL     1     155.200 159.978 165.514  0.00  0.00    +0.000 C 
BRANCH  35  36
ATOM     36  N2  UNL     1     154.606 161.135 166.251  0.00  0.00    +0.000 NA
ATOM     37  C21 UNL     1     153.680 161.821 165.368  0.00  0.00    +0.000 C 
ATOM     38  C22 UNL     1     153.922 160.699 167.427  0.00  0.00    +0.000 C 
ENDBRANCH  35  36
ENDBRANCH  34  35
ENDBRANCH  21  34
ENDBRANCH   1  21
TORSDOF 9
ENDMDL
MODEL 9
REMARK VINA RESULT:      -6.1      5.507      8.331
REMARK  Name = ./3D_structures\o8_MMV689758_3D.pdb
REMARK  12 active torsions:
REMARK  status: ('A' for Active; 'I' for Inactive)
REMARK    1  A    between atoms: C1_1  and  O1_2
REMARK    2  A    between atoms: O1_2  and  C2_3
REMARK    3  A    between atoms: C10_13  and  C11_14
REMARK    4  A    between atoms: C11_14  and  C12_15
REMARK    5  A    between atoms: C11_14  and  C18_21
REMARK    6  A    between atoms: C18_21  and  O2_22
REMARK    7  A    between atoms: C18_21  and  C19_23
REMARK    8  A    between atoms: C18_21  and  C23_28
REMARK    9  A    between atoms: C19_23  and  C20_24
REMARK   10  A    between atoms: C20_24  and  N2_25
REMARK   11  A    between atoms: N2_25  and  C21_26
REMARK   12  A    between atoms: N2_25  and  C22_27
REMARK                            x       y       z     vdW  Elec       q    Type
REMARK                         _______ _______ _______ _____ _____    ______ ____
ROOT
ATOM      1  C11 UNL     1     151.352 162.738 169.832  0.00  0.00    +0.000 C 
ENDROOT
BRANCH   1  12
ATOM      2  C2  UNL     1     149.556 164.338 170.611  0.00  0.00    +0.000 A 
ATOM      3  N1  UNL     1     148.303 164.842 170.355  0.00  0.00    +0.000 NA
ATOM      4  C3  UNL     1     147.544 164.468 169.326  0.00  0.00    +0.000 A 
ATOM      5  C4  UNL     1     146.288 164.987 169.088  0.00  0.00    +0.000 A 
ATOM      6  C5  UNL     1     145.512 164.592 168.020  0.00  0.00    +0.000 A 
ATOM      7  C6  UNL     1     145.969 163.643 167.129  0.00  0.00    +0.000 A 
ATOM      8 BR1  UNL     1     144.892 163.095 165.647  0.00  0.00    +0.000 Br
ATOM      9  C7  UNL     1     147.221 163.115 167.352  0.00  0.00    +0.000 A 
ATOM     10  C8  UNL     1     147.995 163.520 168.432  0.00  0.00    +0.000 A 
ATOM     11  C9  UNL     1     149.237 163.007 168.669  0.00  0.00    +0.000 A 
ATOM     12  C10 UNL     1     150.045 163.411 169.771  0.00  0.00    +0.000 A 
BRANCH   2  14
ATOM     13  C1  UNL     1     150.636 166.139 171.797  0.00  0.00    +0.000 C 
ATOM     14  O1  UNL     1     150.228 164.826 171.724  0.00  0.00    +0.000 OA
ENDBRANCH   2  14
ENDBRANCH   1  12
BRANCH   1  15
ATOM     15  C12 UNL     1     151.002 161.282 170.139  0.00  0.00    +0.000 A 
ATOM     16  C13 UNL     1     150.279 160.541 169.263  0.00  0.00    +0.000 A 
ATOM     17  C14 UNL     1     150.038 159.191 169.558  0.00  0.00    +0.000 A 
ATOM     18  C15 UNL     1     150.510 158.592 170.705  0.00  0.00    +0.000 A 
ATOM     19  C16 UNL     1     151.246 159.354 171.591  0.00  0.00    +0.000 A 
ATOM     20  C17 UNL     1     151.477 160.673 171.295  0.00  0.00    +0.000 A 
ENDBRANCH   1  15
BRANCH   1  21
ATOM     21  C18 UNL     1     152.469 162.858 168.972  0.00  0.00    +0.000 C 
BRANCH  21  22
ATOM     22  C23 UNL     1     152.532 162.063 167.688  0.00  0.00    +0.000 A 
ATOM     23  C24 UNL     1     151.904 162.593 166.568  0.00  0.00    +0.000 A 
ATOM     24  C25 UNL     1     151.967 161.961 165.346  0.00  0.00    +0.000 A 
ATOM     25  C26 UNL     1     152.659 160.772 165.186  0.00  0.00    +0.000 A 
ATOM     26  C27 UNL     1     153.286 160.227 166.287  0.00  0.00    +0.000 A 
ATOM     27  C28 UNL     1     153.944 159.011 166.141  0.00  0.00    +0.000 A 
ATOM     28  C29 UNL     1     154.538 158.418 167.232  0.00  0.00    +0.000 A 
ATOM     29  C30 UNL     1     154.474 159.033 168.453  0.00  0.00    +0.000 A 
ATOM     30  C31 UNL     1     153.805 160.257 168.562  0.00  0.00    +0.000 A 
ATOM     31  C32 UNL     1     153.205 160.887 167.516  0.00  0.00    +0.000 A 
ENDBRANCH  21  22
BRANCH  21  32
ATOM     32  O2  UNL     1     152.452 164.229 168.360  0.00  0.00    +0.000 OA
ATOM     33  H14 UNL     1     153.392 164.489 168.413  0.00  0.00    +0.000 HD
ENDBRANCH  21  32
BRANCH  21  34
ATOM     34  C19 UNL     1     153.890 162.990 169.501  0.00  0.00    +0.000 C 
BRANCH  34  35
ATOM     35  C20 UNL     1     154.073 163.493 170.882  0.00  0.00    +0.000 C 
BRANCH  35  36
ATOM     36  N2  UNL     1     155.435 163.135 171.384  0.00  0.00    +0.000 NA
ATOM     37  C21 UNL     1     155.513 161.693 171.527  0.00  0.00    +0.000 C 
ATOM     38  C22 UNL     1     156.449 163.589 170.485  0.00  0.00    +0.000 C 
ENDBRANCH  35  36
ENDBRANCH  34  35
ENDBRANCH  21  34
ENDBRANCH   1  21
TORSDOF 9
ENDMDL
