MODEL 1
REMARK VINA RESULT:      -7.0      0.000      0.000
REMARK  Name = ./3D_structures\o9_MMV1593532_3D.pdb
REMARK  3 active torsions:
REMARK  status: ('A' for Active; 'I' for Inactive)
REMARK    1  A    between atoms: C1_2  and  C16_20
REMARK    2  A    between atoms: C4_7  and  C5_8
REMARK    3  A    between atoms: C5_8  and  C6_9
REMARK                            x       y       z     vdW  Elec       q    Type
REMARK                         _______ _______ _______ _____ _____    ______ ____
ROOT
ATOM      1  O1  UNL     1     151.426 163.062 166.528  0.00  0.00    +0.000 OA
ATOM      2  C1  UNL     1     152.052 162.949 165.437  0.00  0.00    +0.000 C 
ATOM      3  N1  UNL     1     152.950 161.897 165.227  0.00  0.00    +0.000 N 
ATOM      4  C2  UNL     1     153.115 160.967 166.312  0.00  0.00    +0.000 A 
ATOM      5  N2  UNL     1     152.744 160.734 167.418  0.00  0.00    +0.000 NA
ATOM      6  C3  UNL     1     153.111 159.737 168.196  0.00  0.00    +0.000 A 
ATOM      7  C4  UNL     1     154.007 158.871 167.706  0.00  0.00    +0.000 A 
ATOM      8  S1  UNL     1     154.320 159.557 166.029  0.00  0.00    +0.000 S 
ATOM      9  H1  UNL     1     153.452 161.825 164.321  0.00  0.00    +0.000 HD
ENDROOT
BRANCH   2  10
ATOM     10  C16 UNL     1     151.821 163.945 164.384  0.00  0.00    +0.000 C 
ATOM     11  C17 UNL     1     151.256 165.231 164.880  0.00  0.00    +0.000 C 
ATOM     12  C18 UNL     1     152.226 166.099 165.610  0.00  0.00    +0.000 C 
ATOM     13  C19 UNL     1     153.543 166.269 164.927  0.00  0.00    +0.000 C 
ATOM     14  C20 UNL     1     154.085 164.981 164.357  0.00  0.00    +0.000 C 
ATOM     15  C21 UNL     1     153.046 164.235 163.555  0.00  0.00    +0.000 C 
ENDBRANCH   2  10
BRANCH   7  16
ATOM     16  C5  UNL     1     154.656 157.672 168.228  0.00  0.00    +0.000 C 
BRANCH  16  17
ATOM     17  C6  UNL     1     155.769 157.945 169.156  0.00  0.00    +0.000 A 
ATOM     18  C7  UNL     1     155.575 158.133 170.517  0.00  0.00    +0.000 A 
ATOM     19  C8  UNL     1     156.637 158.384 171.337  0.00  0.00    +0.000 A 
ATOM     20  C9  UNL     1     157.921 158.460 170.860  0.00  0.00    +0.000 A 
ATOM     21  C10 UNL     1     158.096 158.270 169.500  0.00  0.00    +0.000 A 
ATOM     22  C11 UNL     1     159.375 158.340 168.991  0.00  0.00    +0.000 A 
ATOM     23  C12 UNL     1     159.629 158.163 167.654  0.00  0.00    +0.000 A 
ATOM     24  C13 UNL     1     158.553 157.908 166.813  0.00  0.00    +0.000 A 
ATOM     25  C14 UNL     1     157.274 157.833 167.291  0.00  0.00    +0.000 A 
ATOM     26  C15 UNL     1     157.042 158.014 168.640  0.00  0.00    +0.000 A 
ENDBRANCH  16  17
ENDBRANCH   7  16
TORSDOF 3
ENDMDL
MODEL 2
REMARK VINA RESULT:      -6.7      3.699      4.746
REMARK  Name = ./3D_structures\o9_MMV1593532_3D.pdb
REMARK  3 active torsions:
REMARK  status: ('A' for Active; 'I' for Inactive)
REMARK    1  A    between atoms: C1_2  and  C16_20
REMARK    2  A    between atoms: C4_7  and  C5_8
REMARK    3  A    between atoms: C5_8  and  C6_9
REMARK                            x       y       z     vdW  Elec       q    Type
REMARK                         _______ _______ _______ _____ _____    ______ ____
ROOT
ATOM      1  O1  UNL     1     147.769 161.493 168.673  0.00  0.00    +0.000 OA
ATOM      2  C1  UNL     1     148.548 162.458 168.430  0.00  0.00    +0.000 C 
ATOM      3  N1  UNL     1     149.931 162.323 168.590  0.00  0.00    +0.000 N 
ATOM      4  C2  UNL     1     150.406 161.042 169.040  0.00  0.00    +0.000 A 
ATOM      5  N2  UNL     1     150.033 159.958 169.356  0.00  0.00    +0.000 NA
ATOM      6  C3  UNL     1     150.768 158.937 169.745  0.00  0.00    +0.000 A 
ATOM      7  C4  UNL     1     152.093 159.117 169.798  0.00  0.00    +0.000 A 
ATOM      8  S1  UNL     1     152.261 160.864 169.252  0.00  0.00    +0.000 S 
ATOM      9  H1  UNL     1     150.551 163.130 168.383  0.00  0.00    +0.000 HD
ENDROOT
BRANCH   2  10
ATOM     10  C16 UNL     1     147.976 163.730 167.975  0.00  0.00    +0.000 C 
ATOM     11  C17 UNL     1     146.495 163.704 167.809  0.00  0.00    +0.000 C 
ATOM     12  C18 UNL     1     145.724 163.714 169.087  0.00  0.00    +0.000 C 
ATOM     13  C19 UNL     1     146.179 164.732 170.080  0.00  0.00    +0.000 C 
ATOM     14  C20 UNL     1     147.681 164.815 170.196  0.00  0.00    +0.000 C 
ATOM     15  C21 UNL     1     148.351 164.902 168.846  0.00  0.00    +0.000 C 
ENDBRANCH   2  10
BRANCH   7  16
ATOM     16  C5  UNL     1     153.223 158.269 170.166  0.00  0.00    +0.000 C 
BRANCH  16  17
ATOM     17  C6  UNL     1     154.263 158.166 169.124  0.00  0.00    +0.000 A 
ATOM     18  C7  UNL     1     153.958 157.982 167.783  0.00  0.00    +0.000 A 
ATOM     19  C8  UNL     1     154.955 157.893 166.855  0.00  0.00    +0.000 A 
ATOM     20  C9  UNL     1     156.280 157.979 167.202  0.00  0.00    +0.000 A 
ATOM     21  C10 UNL     1     156.566 158.163 168.544  0.00  0.00    +0.000 A 
ATOM     22  C11 UNL     1     157.887 158.254 168.923  0.00  0.00    +0.000 A 
ATOM     23  C12 UNL     1     158.249 158.435 170.234  0.00  0.00    +0.000 A 
ATOM     24  C13 UNL     1     157.241 158.528 171.184  0.00  0.00    +0.000 A 
ATOM     25  C14 UNL     1     155.921 158.440 170.836  0.00  0.00    +0.000 A 
ATOM     26  C15 UNL     1     155.579 158.257 169.511  0.00  0.00    +0.000 A 
ENDBRANCH  16  17
ENDBRANCH   7  16
TORSDOF 3
ENDMDL
MODEL 3
REMARK VINA RESULT:      -6.7      4.115      5.533
REMARK  Name = ./3D_structures\o9_MMV1593532_3D.pdb
REMARK  3 active torsions:
REMARK  status: ('A' for Active; 'I' for Inactive)
REMARK    1  A    between atoms: C1_2  and  C16_20
REMARK    2  A    between atoms: C4_7  and  C5_8
REMARK    3  A    between atoms: C5_8  and  C6_9
REMARK                            x       y       z     vdW  Elec       q    Type
REMARK                         _______ _______ _______ _____ _____    ______ ____
ROOT
ATOM      1  O1  UNL     1     146.570 161.955 168.823  0.00  0.00    +0.000 OA
ATOM      2  C1  UNL     1     146.937 163.146 168.614  0.00  0.00    +0.000 C 
ATOM      3  N1  UNL     1     148.291 163.497 168.633  0.00  0.00    +0.000 N 
ATOM      4  C2  UNL     1     149.226 162.437 168.901  0.00  0.00    +0.000 A 
ATOM      5  N2  UNL     1     149.288 161.272 169.132  0.00  0.00    +0.000 NA
ATOM      6  C3  UNL     1     150.369 160.551 169.344  0.00  0.00    +0.000 A 
ATOM      7  C4  UNL     1     151.549 161.182 169.296  0.00  0.00    +0.000 A 
ATOM      8  S1  UNL     1     151.041 162.909 168.925  0.00  0.00    +0.000 S 
ATOM      9  H1  UNL     1     148.567 164.482 168.458  0.00  0.00    +0.000 HD
ENDROOT
BRANCH   2  10
ATOM     10  C16 UNL     1     145.913 164.163 168.349  0.00  0.00    +0.000 C 
ATOM     11  C17 UNL     1     146.393 165.306 167.522  0.00  0.00    +0.000 C 
ATOM     12  C18 UNL     1     146.583 164.994 166.076  0.00  0.00    +0.000 C 
ATOM     13  C19 UNL     1     145.447 164.259 165.444  0.00  0.00    +0.000 C 
ATOM     14  C20 UNL     1     144.907 163.147 166.310  0.00  0.00    +0.000 C 
ATOM     15  C21 UNL     1     144.658 163.603 167.727  0.00  0.00    +0.000 C 
ENDBRANCH   2  10
BRANCH   7  16
ATOM     16  C5  UNL     1     152.937 160.762 169.469  0.00  0.00    +0.000 C 
BRANCH  16  17
ATOM     17  C6  UNL     1     153.482 160.001 168.329  0.00  0.00    +0.000 A 
ATOM     18  C7  UNL     1     153.140 160.283 167.013  0.00  0.00    +0.000 A 
ATOM     19  C8  UNL     1     153.670 159.551 165.991  0.00  0.00    +0.000 A 
ATOM     20  C9  UNL     1     154.550 158.522 166.214  0.00  0.00    +0.000 A 
ATOM     21  C10 UNL     1     154.880 158.255 167.532  0.00  0.00    +0.000 A 
ATOM     22  C11 UNL     1     155.761 157.227 167.788  0.00  0.00    +0.000 A 
ATOM     23  C12 UNL     1     156.137 156.903 169.068  0.00  0.00    +0.000 A 
ATOM     24  C13 UNL     1     155.601 157.643 170.114  0.00  0.00    +0.000 A 
ATOM     25  C14 UNL     1     154.724 158.668 169.888  0.00  0.00    +0.000 A 
ATOM     26  C15 UNL     1     154.360 158.977 168.593  0.00  0.00    +0.000 A 
ENDBRANCH  16  17
ENDBRANCH   7  16
TORSDOF 3
ENDMDL
MODEL 4
REMARK VINA RESULT:      -6.6      5.472      8.454
REMARK  Name = ./3D_structures\o9_MMV1593532_3D.pdb
REMARK  3 active torsions:
REMARK  status: ('A' for Active; 'I' for Inactive)
REMARK    1  A    between atoms: C1_2  and  C16_20
REMARK    2  A    between atoms: C4_7  and  C5_8
REMARK    3  A    between atoms: C5_8  and  C6_9
REMARK                            x       y       z     vdW  Elec       q    Type
REMARK                         _______ _______ _______ _____ _____    ______ ____
ROOT
ATOM      1  O1  UNL     1     157.348 159.292 168.812  0.00  0.00    +0.000 OA
ATOM      2  C1  UNL     1     157.649 158.236 168.187  0.00  0.00    +0.000 C 
ATOM      3  N1  UNL     1     158.932 158.050 167.661  0.00  0.00    +0.000 N 
ATOM      4  C2  UNL     1     159.873 159.118 167.870  0.00  0.00    +0.000 A 
ATOM      5  N2  UNL     1     159.983 160.193 168.365  0.00  0.00    +0.000 NA
ATOM      6  C3  UNL     1     161.049 160.965 168.385  0.00  0.00    +0.000 A 
ATOM      7  C4  UNL     1     162.153 160.504 167.784  0.00  0.00    +0.000 A 
ATOM      8  S1  UNL     1     161.593 158.867 167.164  0.00  0.00    +0.000 S 
ATOM      9  H1  UNL     1     159.155 157.173 167.152  0.00  0.00    +0.000 HD
ENDROOT
BRANCH   2  10
ATOM     10  C16 UNL     1     156.624 157.198 168.022  0.00  0.00    +0.000 C 
ATOM     11  C17 UNL     1     155.269 157.604 168.489  0.00  0.00    +0.000 C 
ATOM     12  C18 UNL     1     154.564 158.568 167.594  0.00  0.00    +0.000 C 
ATOM     13  C19 UNL     1     154.593 158.207 166.145  0.00  0.00    +0.000 C 
ATOM     14  C20 UNL     1     155.946 157.723 165.684  0.00  0.00    +0.000 C 
ATOM     15  C21 UNL     1     156.520 156.679 166.610  0.00  0.00    +0.000 C 
ENDBRANCH   2  10
BRANCH   7  16
ATOM     16  C5  UNL     1     163.501 161.030 167.586  0.00  0.00    +0.000 C 
BRANCH  16  17
ATOM     17  C6  UNL     1     164.517 160.429 168.470  0.00  0.00    +0.000 A 
ATOM     18  C7  UNL     1     165.004 159.143 168.279  0.00  0.00    +0.000 A 
ATOM     19  C8  UNL     1     165.945 158.629 169.123  0.00  0.00    +0.000 A 
ATOM     20  C9  UNL     1     166.443 159.348 170.181  0.00  0.00    +0.000 A 
ATOM     21  C10 UNL     1     165.946 160.628 170.356  0.00  0.00    +0.000 A 
ATOM     22  C11 UNL     1     166.426 161.374 171.410  0.00  0.00    +0.000 A 
ATOM     23  C12 UNL     1     165.982 162.651 171.650  0.00  0.00    +0.000 A 
ATOM     24  C13 UNL     1     165.025 163.181 170.795  0.00  0.00    +0.000 A 
ATOM     25  C14 UNL     1     164.530 162.462 169.742  0.00  0.00    +0.000 A 
ATOM     26  C15 UNL     1     164.991 161.180 169.519  0.00  0.00    +0.000 A 
ENDBRANCH  16  17
ENDBRANCH   7  16
TORSDOF 3
ENDMDL
MODEL 5
REMARK VINA RESULT:      -6.5      1.263      2.550
REMARK  Name = ./3D_structures\o9_MMV1593532_3D.pdb
REMARK  3 active torsions:
REMARK  status: ('A' for Active; 'I' for Inactive)
REMARK    1  A    between atoms: C1_2  and  C16_20
REMARK    2  A    between atoms: C4_7  and  C5_8
REMARK    3  A    between atoms: C5_8  and  C6_9
REMARK                            x       y       z     vdW  Elec       q    Type
REMARK                         _______ _______ _______ _____ _____    ______ ____
ROOT
ATOM      1  O1  UNL     1     152.440 163.234 164.258  0.00  0.00    +0.000 OA
ATOM      2  C1  UNL     1     151.854 163.521 165.340  0.00  0.00    +0.000 C 
ATOM      3  N1  UNL     1     151.948 162.681 166.454  0.00  0.00    +0.000 N 
ATOM      4  C2  UNL     1     152.740 161.490 166.297  0.00  0.00    +0.000 A 
ATOM      5  N2  UNL     1     153.403 160.897 165.507  0.00  0.00    +0.000 NA
ATOM      6  C3  UNL     1     154.036 159.757 165.683  0.00  0.00    +0.000 A 
ATOM      7  C4  UNL     1     153.938 159.177 166.887  0.00  0.00    +0.000 A 
ATOM      8  S1  UNL     1     152.866 160.365 167.792  0.00  0.00    +0.000 S 
ATOM      9  H1  UNL     1     151.458 162.938 167.333  0.00  0.00    +0.000 HD
ENDROOT
BRANCH   2  10
ATOM     10  C16 UNL     1     151.067 164.758 165.410  0.00  0.00    +0.000 C 
ATOM     11  C17 UNL     1     150.869 165.272 166.794  0.00  0.00    +0.000 C 
ATOM     12  C18 UNL     1     152.076 165.900 167.406  0.00  0.00    +0.000 C 
ATOM     13  C19 UNL     1     152.785 166.873 166.523  0.00  0.00    +0.000 C 
ATOM     14  C20 UNL     1     152.923 166.389 165.100  0.00  0.00    +0.000 C 
ATOM     15  C21 UNL     1     151.618 165.867 164.550  0.00  0.00    +0.000 C 
ENDBRANCH   2  10
BRANCH   7  16
ATOM     16  C5  UNL     1     154.468 157.951 167.473  0.00  0.00    +0.000 C 
BRANCH  16  17
ATOM     17  C6  UNL     1     155.926 157.973 167.700  0.00  0.00    +0.000 A 
ATOM     18  C7  UNL     1     156.842 157.753 166.681  0.00  0.00    +0.000 A 
ATOM     19  C8  UNL     1     158.182 157.784 166.939  0.00  0.00    +0.000 A 
ATOM     20  C9  UNL     1     158.674 158.028 168.197  0.00  0.00    +0.000 A 
ATOM     21  C10 UNL     1     157.745 158.245 169.201  0.00  0.00    +0.000 A 
ATOM     22  C11 UNL     1     158.210 158.493 170.475  0.00  0.00    +0.000 A 
ATOM     23  C12 UNL     1     157.352 158.717 171.522  0.00  0.00    +0.000 A 
ATOM     24  C13 UNL     1     155.987 158.689 171.268  0.00  0.00    +0.000 A 
ATOM     25  C14 UNL     1     155.499 158.444 170.013  0.00  0.00    +0.000 A 
ATOM     26  C15 UNL     1     156.380 158.221 168.974  0.00  0.00    +0.000 A 
ENDBRANCH  16  17
ENDBRANCH   7  16
TORSDOF 3
ENDMDL
MODEL 6
REMARK VINA RESULT:      -6.5      2.517      3.034
REMARK  Name = ./3D_structures\o9_MMV1593532_3D.pdb
REMARK  3 active torsions:
REMARK  status: ('A' for Active; 'I' for Inactive)
REMARK    1  A    between atoms: C1_2  and  C16_20
REMARK    2  A    between atoms: C4_7  and  C5_8
REMARK    3  A    between atoms: C5_8  and  C6_9
REMARK                            x       y       z     vdW  Elec       q    Type
REMARK                         _______ _______ _______ _____ _____    ______ ____
ROOT
ATOM      1  O1  UNL     1     150.988 162.663 166.840  0.00  0.00    +0.000 OA
ATOM      2  C1  UNL     1     150.224 162.335 167.791  0.00  0.00    +0.000 C 
ATOM      3  N1  UNL     1     150.511 161.227 168.596  0.00  0.00    +0.000 N 
ATOM      4  C2  UNL     1     151.710 160.496 168.280  0.00  0.00    +0.000 A 
ATOM      5  N2  UNL     1     152.630 160.476 167.527  0.00  0.00    +0.000 NA
ATOM      6  C3  UNL     1     153.627 159.618 167.499  0.00  0.00    +0.000 A 
ATOM      7  C4  UNL     1     153.629 158.645 168.419  0.00  0.00    +0.000 A 
ATOM      8  S1  UNL     1     152.093 159.012 169.361  0.00  0.00    +0.000 S 
ATOM      9  H1  UNL     1     149.868 160.977 169.372  0.00  0.00    +0.000 HD
ENDROOT
BRANCH   2  10
ATOM     10  C16 UNL     1     149.022 163.139 168.041  0.00  0.00    +0.000 C 
ATOM     11  C17 UNL     1     148.728 163.357 169.485  0.00  0.00    +0.000 C 
ATOM     12  C18 UNL     1     149.629 164.332 170.165  0.00  0.00    +0.000 C 
ATOM     13  C19 UNL     1     149.841 165.608 169.418  0.00  0.00    +0.000 C 
ATOM     14  C20 UNL     1     150.065 165.398 167.940  0.00  0.00    +0.000 C 
ATOM     15  C21 UNL     1     149.036 164.472 167.337  0.00  0.00    +0.000 C 
ENDBRANCH   2  10
BRANCH   7  16
ATOM     16  C5  UNL     1     154.521 157.530 168.721  0.00  0.00    +0.000 C 
BRANCH  16  17
ATOM     17  C6  UNL     1     155.728 157.913 169.477  0.00  0.00    +0.000 A 
ATOM     18  C7  UNL     1     155.692 158.234 170.826  0.00  0.00    +0.000 A 
ATOM     19  C8  UNL     1     156.836 158.583 171.484  0.00  0.00    +0.000 A 
ATOM     20  C9  UNL     1     158.052 158.631 170.850  0.00  0.00    +0.000 A 
ATOM     21  C10 UNL     1     158.070 158.308 169.503  0.00  0.00    +0.000 A 
ATOM     22  C11 UNL     1     159.276 158.348 168.839  0.00  0.00    +0.000 A 
ATOM     23  C12 UNL     1     159.374 158.041 167.505  0.00  0.00    +0.000 A 
ATOM     24  C13 UNL     1     158.214 157.684 166.829  0.00  0.00    +0.000 A 
ATOM     25  C14 UNL     1     157.004 157.638 167.464  0.00  0.00    +0.000 A 
ATOM     26  C15 UNL     1     156.928 157.950 168.807  0.00  0.00    +0.000 A 
ENDBRANCH  16  17
ENDBRANCH   7  16
TORSDOF 3
ENDMDL
MODEL 7
REMARK VINA RESULT:      -6.5      5.424      9.153
REMARK  Name = ./3D_structures\o9_MMV1593532_3D.pdb
REMARK  3 active torsions:
REMARK  status: ('A' for Active; 'I' for Inactive)
REMARK    1  A    between atoms: C1_2  and  C16_20
REMARK    2  A    between atoms: C4_7  and  C5_8
REMARK    3  A    between atoms: C5_8  and  C6_9
REMARK                            x       y       z     vdW  Elec       q    Type
REMARK                         _______ _______ _______ _____ _____    ______ ____
ROOT
ATOM      1  O1  UNL     1     159.587 153.436 163.850  0.00  0.00    +0.000 OA
ATOM      2  C1  UNL     1     158.372 153.324 163.522  0.00  0.00    +0.000 C 
ATOM      3  N1  UNL     1     157.429 154.279 163.915  0.00  0.00    +0.000 N 
ATOM      4  C2  UNL     1     157.918 155.379 164.704  0.00  0.00    +0.000 A 
ATOM      5  N2  UNL     1     158.908 155.821 165.192  0.00  0.00    +0.000 NA
ATOM      6  C3  UNL     1     159.031 156.922 165.904  0.00  0.00    +0.000 A 
ATOM      7  C4  UNL     1     157.924 157.644 166.117  0.00  0.00    +0.000 A 
ATOM      8  S1  UNL     1     156.651 156.658 165.231  0.00  0.00    +0.000 S 
ATOM      9  H1  UNL     1     156.436 154.166 163.632  0.00  0.00    +0.000 HD
ENDROOT
BRANCH   2  10
ATOM     10  C16 UNL     1     157.963 152.169 162.714  0.00  0.00    +0.000 C 
ATOM     11  C17 UNL     1     158.751 150.933 162.981  0.00  0.00    +0.000 C 
ATOM     12  C18 UNL     1     158.431 150.256 164.272  0.00  0.00    +0.000 C 
ATOM     13  C19 UNL     1     156.971 150.082 164.538  0.00  0.00    +0.000 C 
ATOM     14  C20 UNL     1     156.158 151.307 164.197  0.00  0.00    +0.000 C 
ATOM     15  C21 UNL     1     156.494 151.848 162.829  0.00  0.00    +0.000 C 
ENDBRANCH   2  10
BRANCH   7  16
ATOM     16  C5  UNL     1     157.639 158.886 166.831  0.00  0.00    +0.000 C 
BRANCH  16  17
ATOM     17  C6  UNL     1     157.313 158.699 168.257  0.00  0.00    +0.000 A 
ATOM     18  C7  UNL     1     158.289 158.509 169.226  0.00  0.00    +0.000 A 
ATOM     19  C8  UNL     1     157.939 158.340 170.534  0.00  0.00    +0.000 A 
ATOM     20  C9  UNL     1     156.629 158.350 170.942  0.00  0.00    +0.000 A 
ATOM     21  C10 UNL     1     155.669 158.541 169.963  0.00  0.00    +0.000 A 
ATOM     22  C11 UNL     1     154.345 158.555 170.343  0.00  0.00    +0.000 A 
ATOM     23  C12 UNL     1     153.336 158.738 169.430  0.00  0.00    +0.000 A 
ATOM     24  C13 UNL     1     153.684 158.911 168.097  0.00  0.00    +0.000 A 
ATOM     25  C14 UNL     1     154.991 158.900 167.692  0.00  0.00    +0.000 A 
ATOM     26  C15 UNL     1     155.989 158.714 168.628  0.00  0.00    +0.000 A 
ENDBRANCH  16  17
ENDBRANCH   7  16
TORSDOF 3
ENDMDL
MODEL 8
REMARK VINA RESULT:      -6.5      5.456      8.866
REMARK  Name = ./3D_structures\o9_MMV1593532_3D.pdb
REMARK  3 active torsions:
REMARK  status: ('A' for Active; 'I' for Inactive)
REMARK    1  A    between atoms: C1_2  and  C16_20
REMARK    2  A    between atoms: C4_7  and  C5_8
REMARK    3  A    between atoms: C5_8  and  C6_9
REMARK                            x       y       z     vdW  Elec       q    Type
REMARK                         _______ _______ _______ _____ _____    ______ ____
ROOT
ATOM      1  O1  UNL     1     158.266 154.280 161.944  0.00  0.00    +0.000 OA
ATOM      2  C1  UNL     1     158.120 153.508 162.933  0.00  0.00    +0.000 C 
ATOM      3  N1  UNL     1     157.874 154.016 164.213  0.00  0.00    +0.000 N 
ATOM      4  C2  UNL     1     157.799 155.448 164.333  0.00  0.00    +0.000 A 
ATOM      5  N2  UNL     1     157.874 156.451 163.699  0.00  0.00    +0.000 NA
ATOM      6  C3  UNL     1     157.751 157.688 164.134  0.00  0.00    +0.000 A 
ATOM      7  C4  UNL     1     157.512 157.861 165.440  0.00  0.00    +0.000 A 
ATOM      8  S1  UNL     1     157.469 156.127 166.050  0.00  0.00    +0.000 S 
ATOM      9  H1  UNL     1     157.757 153.361 165.011  0.00  0.00    +0.000 HD
ENDROOT
BRANCH   2  10
ATOM     10  C16 UNL     1     158.212 152.059 162.718  0.00  0.00    +0.000 C 
ATOM     11  C17 UNL     1     157.771 151.244 163.883  0.00  0.00    +0.000 C 
ATOM     12  C18 UNL     1     156.294 151.206 164.096  0.00  0.00    +0.000 C 
ATOM     13  C19 UNL     1     155.495 150.936 162.864  0.00  0.00    +0.000 C 
ATOM     14  C20 UNL     1     155.986 151.704 161.660  0.00  0.00    +0.000 C 
ATOM     15  C21 UNL     1     157.481 151.589 161.486  0.00  0.00    +0.000 C 
ENDBRANCH   2  10
BRANCH   7  16
ATOM     16  C5  UNL     1     157.318 159.028 166.294  0.00  0.00    +0.000 C 
BRANCH  16  17
ATOM     17  C6  UNL     1     156.243 158.872 167.292  0.00  0.00    +0.000 A 
ATOM     18  C7  UNL     1     154.900 158.865 166.945  0.00  0.00    +0.000 A 
ATOM     19  C8  UNL     1     153.940 158.718 167.904  0.00  0.00    +0.000 A 
ATOM     20  C9  UNL     1     154.256 158.572 169.232  0.00  0.00    +0.000 A 
ATOM     21  C10 UNL     1     155.601 158.581 169.560  0.00  0.00    +0.000 A 
ATOM     22  C11 UNL     1     155.949 158.436 170.885  0.00  0.00    +0.000 A 
ATOM     23  C12 UNL     1     157.261 158.435 171.289  0.00  0.00    +0.000 A 
ATOM     24  C13 UNL     1     158.244 158.585 170.318  0.00  0.00    +0.000 A 
ATOM     25  C14 UNL     1     157.926 158.730 168.996  0.00  0.00    +0.000 A 
ATOM     26  C15 UNL     1     156.599 158.729 168.613  0.00  0.00    +0.000 A 
ENDBRANCH  16  17
ENDBRANCH   7  16
TORSDOF 3
ENDMDL
MODEL 9
REMARK VINA RESULT:      -6.5      2.749      3.849
REMARK  Name = ./3D_structures\o9_MMV1593532_3D.pdb
REMARK  3 active torsions:
REMARK  status: ('A' for Active; 'I' for Inactive)
REMARK    1  A    between atoms: C1_2  and  C16_20
REMARK    2  A    between atoms: C4_7  and  C5_8
REMARK    3  A    between atoms: C5_8  and  C6_9
REMARK                            x       y       z     vdW  Elec       q    Type
REMARK                         _______ _______ _______ _____ _____    ______ ____
ROOT
ATOM      1  O1  UNL     1     150.902 163.374 166.776  0.00  0.00    +0.000 OA
ATOM      2  C1  UNL     1     149.969 163.189 167.608  0.00  0.00    +0.000 C 
ATOM      3  N1  UNL     1     149.981 162.088 168.470  0.00  0.00    +0.000 N 
ATOM      4  C2  UNL     1     151.101 161.192 168.355  0.00  0.00    +0.000 A 
ATOM      5  N2  UNL     1     152.109 161.019 167.749  0.00  0.00    +0.000 NA
ATOM      6  C3  UNL     1     152.973 160.036 167.891  0.00  0.00    +0.000 A 
ATOM      7  C4  UNL     1     152.706 159.110 168.821  0.00  0.00    +0.000 A 
ATOM      8  S1  UNL     1     151.114 159.716 169.512  0.00  0.00    +0.000 S 
ATOM      9  H1  UNL     1     149.203 161.958 169.146  0.00  0.00    +0.000 HD
ENDROOT
BRANCH   2  10
ATOM     10  C16 UNL     1     148.866 164.155 167.656  0.00  0.00    +0.000 C 
ATOM     11  C17 UNL     1     147.999 164.025 168.860  0.00  0.00    +0.000 C 
ATOM     12  C18 UNL     1     148.610 164.527 170.126  0.00  0.00    +0.000 C 
ATOM     13  C19 UNL     1     149.252 165.871 170.016  0.00  0.00    +0.000 C 
ATOM     14  C20 UNL     1     150.071 166.034 168.759  0.00  0.00    +0.000 C 
ATOM     15  C21 UNL     1     149.318 165.588 167.530  0.00  0.00    +0.000 C 
ENDBRANCH   2  10
BRANCH   7  16
ATOM     16  C5  UNL     1     153.382 157.900 169.278  0.00  0.00    +0.000 C 
BRANCH  16  17
ATOM     17  C6  UNL     1     154.754 157.744 168.758  0.00  0.00    +0.000 A 
ATOM     18  C7  UNL     1     155.015 157.290 167.472  0.00  0.00    +0.000 A 
ATOM     19  C8  UNL     1     156.301 157.162 167.034  0.00  0.00    +0.000 A 
ATOM     20  C9  UNL     1     157.375 157.468 167.832  0.00  0.00    +0.000 A 
ATOM     21  C10 UNL     1     157.095 157.918 169.112  0.00  0.00    +0.000 A 
ATOM     22  C11 UNL     1     158.153 158.234 169.936  0.00  0.00    +0.000 A 
ATOM     23  C12 UNL     1     157.956 158.686 171.217  0.00  0.00    +0.000 A 
ATOM     24  C13 UNL     1     156.650 158.821 171.670  0.00  0.00    +0.000 A 
ATOM     25  C14 UNL     1     155.582 158.514 170.872  0.00  0.00    +0.000 A 
ATOM     26  C15 UNL     1     155.803 158.060 169.587  0.00  0.00    +0.000 A 
ENDBRANCH  16  17
ENDBRANCH   7  16
TORSDOF 3
ENDMDL
