2D_structures\o10_MMV1645152_2D.pdb
 OpenBabel02282409193D

 23 24  0  0  0  0  0  0  0  0999 V2000
    0.0020   -2.9460    0.0000 Br  0  0  0  0  0  0  0  0  0  0  0  0
    1.0070   -1.8340    0.0000 C   0  0  0  0  0  0  0  0  0  0  0  0
    0.5470   -0.4060    0.0000 C   0  0  0  0  0  0  0  0  0  0  0  0
    1.5520    0.7070    0.0000 N   0  0  0  0  0  0  0  0  0  0  0  0
    3.0190    0.3920    0.0000 C   0  0  0  0  0  0  0  0  0  0  0  0
    3.4800   -1.0350    0.0000 N   0  0  0  0  0  0  0  0  0  0  0  0
    2.4740   -2.1480    0.0000 C   0  0  0  0  0  0  0  0  0  0  0  0
    2.9350   -3.5760    0.0000 O   0  0  0  0  0  0  0  0  0  0  0  0
    4.0250    1.5050    0.0000 N   0  0  0  0  0  0  0  0  0  0  0  0
   -0.9200   -0.0910    0.0000 C   0  0  0  0  0  0  0  0  0  0  0  0
   -1.3810    1.3360    0.0000 C   0  0  0  0  0  0  0  0  0  0  0  0
   -2.8480    1.6510    0.0000 C   0  0  0  0  0  0  0  0  0  0  0  0
   -3.8530    0.5380    0.0000 C   0  0  0  0  0  0  0  0  0  0  0  0
   -3.3930   -0.8900    0.0000 C   0  0  0  0  0  0  0  0  0  0  0  0
   -1.9260   -1.2040    0.0000 C   0  0  0  0  0  0  0  0  0  0  0  0
   -3.3080    3.0780    0.0000 Cl  0  0  0  0  0  0  0  0  0  0  0  0
    1.0910    2.1340    0.0000 H   0  0  0  0  0  0  0  0  0  0  0  0
    5.4910    1.1900    0.0000 H   0  0  0  0  0  0  0  0  0  0  0  0
    3.5640    2.9320    0.0000 H   0  0  0  0  0  0  0  0  0  0  0  0
   -0.3750    2.4490    0.0000 H   0  0  0  0  0  0  0  0  0  0  0  0
   -5.3200    0.8520    0.0000 H   0  0  0  0  0  0  0  0  0  0  0  0
   -4.3980   -2.0020    0.0000 H   0  0  0  0  0  0  0  0  0  0  0  0
   -1.4650   -2.6320    0.0000 H   0  0  0  0  0  0  0  0  0  0  0  0
  1  2  1  0  0  0  0
  2  3  2  0  0  0  0
  2  7  1  0  0  0  0
  3  4  1  0  0  0  0
  3 10  1  0  0  0  0
  4  5  1  0  0  0  0
  4 17  1  0  0  0  0
  5  6  2  0  0  0  0
  5  9  1  0  0  0  0
  6  7  1  0  0  0  0
  7  8  2  0  0  0  0
  9 18  1  0  0  0  0
  9 19  1  0  0  0  0
 10 11  2  0  0  0  0
 10 15  1  0  0  0  0
 11 12  1  0  0  0  0
 11 20  1  0  0  0  0
 12 13  2  0  0  0  0
 12 16  1  0  0  0  0
 13 14  1  0  0  0  0
 13 21  1  0  0  0  0
 14 15  2  0  0  0  0
 14 22  1  0  0  0  0
 15 23  1  0  0  0  0
M  END
$$$$
