2D_structures\o12_MMV1593520_2D.pdb
 OpenBabel02282409193D

 29 30  0  0  1  0  0  0  0  0999 V2000
   -4.3050   -2.5840    0.0000 O   0  0  0  0  0  0  0  0  0  0  0  0
   -3.3130   -1.4590    0.0000 C   0  0  0  0  0  0  0  0  0  0  0  0
   -2.3200   -0.3340    0.0000 C   0  0  1  0  0  0  0  0  0  0  0  0
   -1.3060   -1.4390    0.0000 O   0  0  0  0  0  0  0  0  0  0  0  0
    0.0590   -0.8150    0.0000 C   0  0  1  0  0  0  0  0  0  0  0  0
   -0.1130    0.6750    0.0000 C   0  0  0  0  0  0  0  0  0  0  0  0
   -1.5840    0.9720    0.0000 C   0  0  1  0  0  0  0  0  0  0  0  0
   -2.9600    1.5690    0.0000 N   0  0  0  0  0  0  0  0  0  0  0  0
   -3.1320    3.0590    0.0000 N   0  3  0  0  0  0  0  0  0  0  0  0
   -3.3040    4.5490    0.0000 N   0  5  0  0  0  0  0  0  0  0  0  0
    1.5230   -0.4880    0.0000 N   0  0  0  0  0  0  0  0  0  0  0  0
    1.9720    0.9430    0.0000 C   0  0  0  0  0  0  0  0  0  0  0  0
    3.4360    1.2700    0.0000 C   0  0  0  0  0  0  0  0  0  0  0  0
    4.4510    0.1650    0.0000 C   0  0  0  0  0  0  0  0  0  0  0  0
    5.9150    0.4920    0.0000 O   0  0  0  0  0  0  0  0  0  0  0  0
    4.0010   -1.2660    0.0000 N   0  0  0  0  0  0  0  0  0  0  0  0
    2.5370   -1.5930    0.0000 C   0  0  0  0  0  0  0  0  0  0  0  0
    2.0880   -3.0240    0.0000 O   0  0  0  0  0  0  0  0  0  0  0  0
   -3.8270   -4.0050    0.0000 H   0  0  0  0  0  0  0  0  0  0  0  0
   -4.4380   -0.4660    0.0000 H   0  0  0  0  0  0  0  0  0  0  0  0
   -2.1880   -2.4510    0.0000 H   0  0  0  0  0  0  0  0  0  0  0  0
   -3.5430    0.5350    0.0000 H   0  0  0  0  0  0  0  0  0  0  0  0
    0.5360   -2.2370    0.0000 H   0  0  0  0  0  0  0  0  0  0  0  0
    0.0290    2.1690    0.0000 H   0  0  0  0  0  0  0  0  0  0  0  0
    1.0630    0.9810    0.0000 H   0  0  0  0  0  0  0  0  0  0  0  0
   -1.1340    2.4040    0.0000 H   0  0  0  0  0  0  0  0  0  0  0  0
    0.9570    2.0480    0.0000 H   0  0  0  0  0  0  0  0  0  0  0  0
    3.8850    2.7010    0.0000 H   0  0  0  0  0  0  0  0  0  0  0  0
    5.0160   -2.3710    0.0000 H   0  0  0  0  0  0  0  0  0  0  0  0
  1  2  1  0  0  0  0
  1 19  1  0  0  0  0
  2  3  1  0  0  0  0
  2 20  1  0  0  0  0
  2 21  1  0  0  0  0
  3  4  1  0  0  0  0
  3  7  1  0  0  0  0
  3 22  1  1  0  0  0
  4  5  1  0  0  0  0
  5  6  1  0  0  0  0
  5 11  1  0  0  0  0
  5 23  1  6  0  0  0
  6  7  1  0  0  0  0
  6 24  1  0  0  0  0
  6 25  1  0  0  0  0
  7  8  1  0  0  0  0
  7 26  1  1  0  0  0
  8  9  2  0  0  0  0
  9 10  2  0  0  0  0
 11 12  1  0  0  0  0
 11 17  1  0  0  0  0
 12 13  2  0  0  0  0
 12 27  1  0  0  0  0
 13 14  1  0  0  0  0
 13 28  1  0  0  0  0
 14 15  2  0  0  0  0
 14 16  1  0  0  0  0
 16 17  1  0  0  0  0
 16 29  1  0  0  0  0
 17 18  2  0  0  0  0
M  CHG  2   9   1  10  -1
M  END
$$$$
