2D_structures\o13_MMV1581029_2D.pdb
 OpenBabel02282409193D

 33 34  0  0  0  0  0  0  0  0999 V2000
    6.3240   -2.6210    0.0000 O   0  5  0  0  0  0  0  0  0  0  0  0
    6.3800   -1.1220    0.0000 N   0  3  0  0  0  0  0  0  0  0  0  0
    7.7050   -0.4200    0.0000 O   0  0  0  0  0  0  0  0  0  0  0  0
    5.1090   -0.3250    0.0000 C   0  0  0  0  0  0  0  0  0  0  0  0
    3.7830   -1.0260    0.0000 C   0  0  0  0  0  0  0  0  0  0  0  0
    2.5130   -0.2290    0.0000 C   0  0  0  0  0  0  0  0  0  0  0  0
    2.5680    1.2700    0.0000 C   0  0  0  0  0  0  0  0  0  0  0  0
    3.8940    1.9720    0.0000 C   0  0  0  0  0  0  0  0  0  0  0  0
    5.1640    1.1740    0.0000 C   0  0  0  0  0  0  0  0  0  0  0  0
    1.1870   -0.9310    0.0000 N   0  0  0  0  0  0  0  0  0  0  0  0
   -0.0840   -0.1330    0.0000 C   0  0  0  0  0  0  0  0  0  0  0  0
   -0.0290    1.3660    0.0000 O   0  0  0  0  0  0  0  0  0  0  0  0
   -1.4090   -0.8350    0.0000 N   0  0  0  0  0  0  0  0  0  0  0  0
   -2.6800   -0.0380    0.0000 C   0  0  0  0  0  0  0  0  0  0  0  0
   -4.0060   -0.7400    0.0000 C   0  0  0  0  0  0  0  0  0  0  0  0
   -5.2760    0.0580    0.0000 C   0  0  0  0  0  0  0  0  0  0  0  0
   -5.2210    1.5570    0.0000 C   0  0  0  0  0  0  0  0  0  0  0  0
   -3.8950    2.2580    0.0000 C   0  0  0  0  0  0  0  0  0  0  0  0
   -2.6250    1.4610    0.0000 C   0  0  0  0  0  0  0  0  0  0  0  0
   -4.0610   -2.2380    0.0000 C   0  0  0  0  0  0  0  0  0  0  0  0
    3.7280   -2.5250    0.0000 H   0  0  0  0  0  0  0  0  0  0  0  0
    1.2970    2.0670    0.0000 H   0  0  0  0  0  0  0  0  0  0  0  0
    3.9490    3.4710    0.0000 H   0  0  0  0  0  0  0  0  0  0  0  0
    6.4900    1.8760    0.0000 H   0  0  0  0  0  0  0  0  0  0  0  0
    1.1320   -2.4300    0.0000 H   0  0  0  0  0  0  0  0  0  0  0  0
   -1.4650   -2.3340    0.0000 H   0  0  0  0  0  0  0  0  0  0  0  0
   -6.6020   -0.6440    0.0000 H   0  0  0  0  0  0  0  0  0  0  0  0
   -6.4920    2.3540    0.0000 H   0  0  0  0  0  0  0  0  0  0  0  0
   -3.8400    3.7570    0.0000 H   0  0  0  0  0  0  0  0  0  0  0  0
   -1.2990    2.1630    0.0000 H   0  0  0  0  0  0  0  0  0  0  0  0
   -4.1160   -3.7370    0.0000 H   0  0  0  0  0  0  0  0  0  0  0  0
   -2.5620   -2.2940    0.0000 H   0  0  0  0  0  0  0  0  0  0  0  0
   -5.5600   -2.1830    0.0000 H   0  0  0  0  0  0  0  0  0  0  0  0
  1  2  1  0  0  0  0
  2  3  2  0  0  0  0
  2  4  1  0  0  0  0
  4  5  2  0  0  0  0
  4  9  1  0  0  0  0
  5  6  1  0  0  0  0
  5 21  1  0  0  0  0
  6  7  2  0  0  0  0
  6 10  1  0  0  0  0
  7  8  1  0  0  0  0
  7 22  1  0  0  0  0
  8  9  2  0  0  0  0
  8 23  1  0  0  0  0
  9 24  1  0  0  0  0
 10 11  1  0  0  0  0
 10 25  1  0  0  0  0
 11 12  2  0  0  0  0
 11 13  1  0  0  0  0
 13 14  1  0  0  0  0
 13 26  1  0  0  0  0
 14 15  2  0  0  0  0
 14 19  1  0  0  0  0
 15 16  1  0  0  0  0
 15 20  1  0  0  0  0
 16 17  2  0  0  0  0
 16 27  1  0  0  0  0
 17 18  1  0  0  0  0
 17 28  1  0  0  0  0
 18 19  2  0  0  0  0
 18 29  1  0  0  0  0
 19 30  1  0  0  0  0
 20 31  1  0  0  0  0
 20 32  1  0  0  0  0
 20 33  1  0  0  0  0
M  CHG  2   1  -1   2   1
M  END
$$$$
