2D_structures\o16_MMV251679_2D.pdb
 OpenBabel02282409193D

 33 35  0  0  0  0  0  0  0  0999 V2000
   -0.1770    1.7090    0.0000 S   0  0  0  0  0  0  0  0  0  0  0  0
   -0.5870    3.1520    0.0000 O   0  0  0  0  0  0  0  0  0  0  0  0
    0.2320    0.2660    0.0000 O   0  0  0  0  0  0  0  0  0  0  0  0
    1.2660    2.1180    0.0000 N   0  0  0  0  0  0  0  0  0  0  0  0
    2.3420    1.0730    0.0000 C   0  0  0  0  0  0  0  0  0  0  0  0
    1.9740   -0.3810    0.0000 C   0  0  0  0  0  0  0  0  0  0  0  0
    3.0500   -1.4270    0.0000 C   0  0  0  0  0  0  0  0  0  0  0  0
    4.4930   -1.0170    0.0000 C   0  0  0  0  0  0  0  0  0  0  0  0
    5.5690   -2.0630    0.0000 O   0  0  0  0  0  0  0  0  0  0  0  0
    4.8610    0.4370    0.0000 C   0  0  0  0  0  0  0  0  0  0  0  0
    3.7850    1.4820    0.0000 C   0  0  0  0  0  0  0  0  0  0  0  0
   -1.6210    1.3000    0.0000 C   0  0  0  0  0  0  0  0  0  0  0  0
   -2.6960    2.3450    0.0000 C   0  0  0  0  0  0  0  0  0  0  0  0
   -4.1400    1.9360    0.0000 C   0  0  0  0  0  0  0  0  0  0  0  0
   -4.5070    0.4820    0.0000 C   0  0  0  0  0  0  0  0  0  0  0  0
   -3.4310   -0.5630    0.0000 C   0  0  0  0  0  0  0  0  0  0  0  0
   -3.7980   -2.0180    0.0000 C   0  0  0  0  0  0  0  0  0  0  0  0
   -2.7220   -3.0630    0.0000 C   0  0  0  0  0  0  0  0  0  0  0  0
   -1.2790   -2.6540    0.0000 C   0  0  0  0  0  0  0  0  0  0  0  0
   -0.9120   -1.2000    0.0000 N   0  0  0  0  0  0  0  0  0  0  0  0
   -1.9880   -0.1540    0.0000 C   0  0  0  0  0  0  0  0  0  0  0  0
    1.6330    3.5730    0.0000 H   0  0  0  0  0  0  0  0  0  0  0  0
    0.5310   -0.7900    0.0000 H   0  0  0  0  0  0  0  0  0  0  0  0
    2.6830   -2.8810    0.0000 H   0  0  0  0  0  0  0  0  0  0  0  0
    7.0120   -1.6540    0.0000 H   0  0  0  0  0  0  0  0  0  0  0  0
    6.3040    0.8460    0.0000 H   0  0  0  0  0  0  0  0  0  0  0  0
    4.1520    2.9360    0.0000 H   0  0  0  0  0  0  0  0  0  0  0  0
   -2.3290    3.8000    0.0000 H   0  0  0  0  0  0  0  0  0  0  0  0
   -5.2150    2.9810    0.0000 H   0  0  0  0  0  0  0  0  0  0  0  0
   -5.9500    0.0730    0.0000 H   0  0  0  0  0  0  0  0  0  0  0  0
   -5.2410   -2.4270    0.0000 H   0  0  0  0  0  0  0  0  0  0  0  0
   -3.0900   -4.5170    0.0000 H   0  0  0  0  0  0  0  0  0  0  0  0
   -0.2030   -3.6990    0.0000 H   0  0  0  0  0  0  0  0  0  0  0  0
  1  2  2  0  0  0  0
  1  3  2  0  0  0  0
  1  4  1  0  0  0  0
  1 12  1  0  0  0  0
  4  5  1  0  0  0  0
  4 22  1  0  0  0  0
  5  6  2  0  0  0  0
  5 11  1  0  0  0  0
  6  7  1  0  0  0  0
  6 23  1  0  0  0  0
  7  8  2  0  0  0  0
  7 24  1  0  0  0  0
  8  9  1  0  0  0  0
  8 10  1  0  0  0  0
  9 25  1  0  0  0  0
 10 11  2  0  0  0  0
 10 26  1  0  0  0  0
 11 27  1  0  0  0  0
 12 13  2  0  0  0  0
 12 21  1  0  0  0  0
 13 14  1  0  0  0  0
 13 28  1  0  0  0  0
 14 15  2  0  0  0  0
 14 29  1  0  0  0  0
 15 16  1  0  0  0  0
 15 30  1  0  0  0  0
 16 17  2  0  0  0  0
 16 21  1  0  0  0  0
 17 18  1  0  0  0  0
 17 31  1  0  0  0  0
 18 19  2  0  0  0  0
 18 32  1  0  0  0  0
 19 20  1  0  0  0  0
 19 33  1  0  0  0  0
 20 21  2  0  0  0  0
M  END
$$$$
