2D_structures\o17_MMV003291_2D.pdb
 OpenBabel02282409193D

 28 29  0  0  0  0  0  0  0  0999 V2000
   -6.6160   -1.1780    0.0000 F   0  0  0  0  0  0  0  0  0  0  0  0
   -5.1870   -0.7220    0.0000 C   0  0  0  0  0  0  0  0  0  0  0  0
   -5.6440    0.7070    0.0000 F   0  0  0  0  0  0  0  0  0  0  0  0
   -4.7310   -2.1510    0.0000 F   0  0  0  0  0  0  0  0  0  0  0  0
   -3.7580   -0.2650    0.0000 C   0  0  0  0  0  0  0  0  0  0  0  0
   -3.4390    1.2000    0.0000 C   0  0  0  0  0  0  0  0  0  0  0  0
   -2.0100    1.6570    0.0000 C   0  0  0  0  0  0  0  0  0  0  0  0
   -0.9010    0.6470    0.0000 C   0  0  0  0  0  0  0  0  0  0  0  0
    0.5280    1.1040    0.0000 N   0  0  0  0  0  0  0  0  0  0  0  0
    1.6380    0.0940    0.0000 C   0  0  0  0  0  0  0  0  0  0  0  0
    1.3190   -1.3710    0.0000 O   0  0  0  0  0  0  0  0  0  0  0  0
    3.0670    0.5510    0.0000 C   0  0  0  0  0  0  0  0  0  0  0  0
    4.2760   -0.3370    0.0000 C   0  0  0  0  0  0  0  0  0  0  0  0
    5.4940    0.5380    0.0000 O   0  0  0  0  0  0  0  0  0  0  0  0
    5.0380    1.9670    0.0000 N   0  0  0  0  0  0  0  0  0  0  0  0
    3.5380    1.9750    0.0000 C   0  0  0  0  0  0  0  0  0  0  0  0
    4.2680   -1.8370    0.0000 C   0  0  0  0  0  0  0  0  0  0  0  0
   -1.2200   -0.8180    0.0000 C   0  0  0  0  0  0  0  0  0  0  0  0
   -2.6490   -1.2750    0.0000 C   0  0  0  0  0  0  0  0  0  0  0  0
   -4.5490    2.2100    0.0000 H   0  0  0  0  0  0  0  0  0  0  0  0
   -1.6910    3.1220    0.0000 H   0  0  0  0  0  0  0  0  0  0  0  0
    0.8480    2.5690    0.0000 H   0  0  0  0  0  0  0  0  0  0  0  0
    2.6620    3.1930    0.0000 H   0  0  0  0  0  0  0  0  0  0  0  0
    4.2610   -3.3370    0.0000 H   0  0  0  0  0  0  0  0  0  0  0  0
    5.7680   -1.8450    0.0000 H   0  0  0  0  0  0  0  0  0  0  0  0
    2.7680   -1.8300    0.0000 H   0  0  0  0  0  0  0  0  0  0  0  0
   -0.1100   -1.8280    0.0000 H   0  0  0  0  0  0  0  0  0  0  0  0
   -2.9680   -2.7400    0.0000 H   0  0  0  0  0  0  0  0  0  0  0  0
  1  2  1  0  0  0  0
  2  3  1  0  0  0  0
  2  4  1  0  0  0  0
  2  5  1  0  0  0  0
  5  6  2  0  0  0  0
  5 19  1  0  0  0  0
  6  7  1  0  0  0  0
  6 20  1  0  0  0  0
  7  8  2  0  0  0  0
  7 21  1  0  0  0  0
  8  9  1  0  0  0  0
  8 18  1  0  0  0  0
  9 10  1  0  0  0  0
  9 22  1  0  0  0  0
 10 11  2  0  0  0  0
 10 12  1  0  0  0  0
 12 13  2  0  0  0  0
 12 16  1  0  0  0  0
 13 14  1  0  0  0  0
 13 17  1  0  0  0  0
 14 15  1  0  0  0  0
 15 16  2  0  0  0  0
 16 23  1  0  0  0  0
 17 24  1  0  0  0  0
 17 25  1  0  0  0  0
 17 26  1  0  0  0  0
 18 19  2  0  0  0  0
 18 27  1  0  0  0  0
 19 28  1  0  0  0  0
M  END
$$$$
