2D_structures\o19_MMV1174026_2D.pdb
 OpenBabel02282409193D

 37 38  0  0  0  0  0  0  0  0999 V2000
    1.7540    2.0680    0.0000 O   0  0  0  0  0  0  0  0  0  0  0  0
    2.9650    1.1810    0.0000 C   0  0  0  0  0  0  0  0  0  0  0  0
    4.3370    1.7870    0.0000 C   0  0  0  0  0  0  0  0  0  0  0  0
    5.5470    0.9000    0.0000 C   0  0  0  0  0  0  0  0  0  0  0  0
    5.3850   -0.5910    0.0000 C   0  0  0  0  0  0  0  0  0  0  0  0
    6.5960   -1.4770    0.0000 N   0  0  0  0  0  0  0  0  0  0  0  0
    4.0130   -1.1960    0.0000 C   0  0  0  0  0  0  0  0  0  0  0  0
    2.8020   -0.3100    0.0000 C   0  0  0  0  0  0  0  0  0  0  0  0
    0.3820    1.4620    0.0000 C   0  0  0  0  0  0  0  0  0  0  0  0
   -0.8280    2.3490    0.0000 C   0  0  0  0  0  0  0  0  0  0  0  0
   -2.2010    1.7430    0.0000 C   0  0  0  0  0  0  0  0  0  0  0  0
   -2.3630    0.2520    0.0000 C   0  0  0  0  0  0  0  0  0  0  0  0
   -3.7360   -0.3530    0.0000 C   0  0  0  0  0  0  0  0  0  0  0  0
   -5.1080   -0.9580    0.0000 C   0  0  0  0  0  0  0  0  0  0  0  0
   -3.1310   -1.7250    0.0000 C   0  0  0  0  0  0  0  0  0  0  0  0
   -4.3410    1.0200    0.0000 C   0  0  0  0  0  0  0  0  0  0  0  0
   -1.1530   -0.6340    0.0000 C   0  0  0  0  0  0  0  0  0  0  0  0
    0.2200   -0.0290    0.0000 C   0  0  0  0  0  0  0  0  0  0  0  0
    4.4990    3.2780    0.0000 H   0  0  0  0  0  0  0  0  0  0  0  0
    6.9200    1.5060    0.0000 H   0  0  0  0  0  0  0  0  0  0  0  0
    6.4330   -2.9680    0.0000 H   0  0  0  0  0  0  0  0  0  0  0  0
    7.9680   -0.8720    0.0000 H   0  0  0  0  0  0  0  0  0  0  0  0
    3.8500   -2.6870    0.0000 H   0  0  0  0  0  0  0  0  0  0  0  0
    1.5140   -1.0780    0.0000 H   0  0  0  0  0  0  0  0  0  0  0  0
   -0.6660    3.8400    0.0000 H   0  0  0  0  0  0  0  0  0  0  0  0
   -2.9160    2.2670    0.0000 H   0  0  0  0  0  0  0  0  0  0  0  0
   -6.4810   -1.5630    0.0000 H   0  0  0  0  0  0  0  0  0  0  0  0
   -5.5620   -0.1970    0.0000 H   0  0  0  0  0  0  0  0  0  0  0  0
   -4.8520   -1.8060    0.0000 H   0  0  0  0  0  0  0  0  0  0  0  0
   -2.5260   -3.0980    0.0000 H   0  0  0  0  0  0  0  0  0  0  0  0
   -3.8920   -2.1790    0.0000 H   0  0  0  0  0  0  0  0  0  0  0  0
   -1.6530   -1.4700    0.0000 H   0  0  0  0  0  0  0  0  0  0  0  0
   -4.9460    2.3920    0.0000 H   0  0  0  0  0  0  0  0  0  0  0  0
   -5.1890    0.7640    0.0000 H   0  0  0  0  0  0  0  0  0  0  0  0
   -3.6410    1.5630    0.0000 H   0  0  0  0  0  0  0  0  0  0  0  0
   -1.3150   -2.1250    0.0000 H   0  0  0  0  0  0  0  0  0  0  0  0
    1.3130   -1.0560    0.0000 H   0  0  0  0  0  0  0  0  0  0  0  0
  1  2  1  0  0  0  0
  1  9  1  0  0  0  0
  2  3  2  0  0  0  0
  2  8  1  0  0  0  0
  3  4  1  0  0  0  0
  3 19  1  0  0  0  0
  4  5  2  0  0  0  0
  4 20  1  0  0  0  0
  5  6  1  0  0  0  0
  5  7  1  0  0  0  0
  6 21  1  0  0  0  0
  6 22  1  0  0  0  0
  7  8  2  0  0  0  0
  7 23  1  0  0  0  0
  8 24  1  0  0  0  0
  9 10  2  0  0  0  0
  9 18  1  0  0  0  0
 10 11  1  0  0  0  0
 10 25  1  0  0  0  0
 11 12  2  0  0  0  0
 11 26  1  0  0  0  0
 12 13  1  0  0  0  0
 12 17  1  0  0  0  0
 13 14  1  0  0  0  0
 13 15  1  0  0  0  0
 13 16  1  0  0  0  0
 14 27  1  0  0  0  0
 14 28  1  0  0  0  0
 14 29  1  0  0  0  0
 15 30  1  0  0  0  0
 15 31  1  0  0  0  0
 15 32  1  0  0  0  0
 16 33  1  0  0  0  0
 16 34  1  0  0  0  0
 16 35  1  0  0  0  0
 17 18  2  0  0  0  0
 17 36  1  0  0  0  0
 18 37  1  0  0  0  0
M  END
$$$$
