2D_structures\o21_MMV639951_2D.pdb
 OpenBabel02282409193D

151154  0  0  1  0  0  0  0  0999 V2000
    1.3840    6.8080    0.0000 O   0  0  0  0  0  0  0  0  0  0  0  0
    0.6630    5.4930    0.0000 C   0  0  0  0  0  0  0  0  0  0  0  0
    1.7790    4.4910    0.0000 N   0  0  0  0  0  0  0  0  0  0  0  0
    2.6530    3.2720    0.0000 C   0  0  1  0  0  0  0  0  0  0  0  0
    3.2450    1.8940    0.0000 C   0  0  0  0  0  0  0  0  0  0  0  0
    4.7430    1.9730    0.0000 O   0  0  0  0  0  0  0  0  0  0  0  0
    3.5270    0.4200    0.0000 O   0  0  0  0  0  0  0  0  0  0  0  0
    3.4850   -1.0790    0.0000 C   0  0  1  0  0  0  0  0  0  0  0  0
    4.8530   -0.4620    0.0000 C   0  0  1  0  0  0  0  0  0  0  0  0
    6.2200    0.1540    0.0000 C   0  0  0  0  0  0  0  0  0  0  0  0
    7.5870    0.7710    0.0000 C   0  0  1  0  0  0  0  0  0  0  0  0
    7.9570   -0.6830    0.0000 C   0  0  0  0  0  0  0  0  0  0  0  0
    9.4010   -1.0890    0.0000 C   0  0  1  0  0  0  0  0  0  0  0  0
    8.7500   -2.4410    0.0000 O   0  0  0  0  0  0  0  0  0  0  0  0
    9.5950   -3.6800    0.0000 C   0  0  0  0  0  0  0  0  0  0  0  0
   10.4750   -0.0420    0.0000 C   0  0  1  0  0  0  0  0  0  0  0  0
   11.3200   -1.2820    0.0000 O   0  0  0  0  0  0  0  0  0  0  0  0
   12.8160   -1.1700    0.0000 C   0  0  0  0  0  0  0  0  0  0  0  0
   14.3120   -1.0580    0.0000 C   0  0  0  0  0  0  0  0  0  0  0  0
   15.8070   -0.9460    0.0000 O   0  0  0  0  0  0  0  0  0  0  0  0
   10.1050    1.4120    0.0000 C   0  0  0  0  0  0  0  0  0  0  0  0
    8.6610    1.8180    0.0000 C   0  0  0  0  0  0  0  0  0  0  0  0
    4.2360    0.9050    0.0000 C   0  0  0  0  0  0  0  0  0  0  0  0
    3.1220   -2.5350    0.0000 C   0  0  0  0  0  0  0  0  0  0  0  0
    2.4550   -3.8780    0.0000 C   0  0  0  0  0  0  0  0  0  0  0  0
    3.8080   -4.5270    0.0000 O   0  0  0  0  0  0  0  0  0  0  0  0
    1.5150   -5.0470    0.0000 C   0  0  1  0  0  0  0  0  0  0  0  0
    0.1700   -5.7120    0.0000 C   0  0  0  0  0  0  0  0  0  0  0  0
   -0.9990   -6.6510    0.0000 C   0  0  0  0  0  0  0  0  0  0  0  0
   -2.4550   -7.0120    0.0000 C   0  0  1  0  0  0  0  0  0  0  0  0
   -1.4950   -8.1650    0.0000 O   0  0  0  0  0  0  0  0  0  0  0  0
   -3.9550   -7.0520    0.0000 C   0  0  1  0  0  0  0  0  0  0  0  0
   -3.2650   -8.3840    0.0000 O   0  0  0  0  0  0  0  0  0  0  0  0
   -4.0730   -9.6470    0.0000 C   0  0  0  0  0  0  0  0  0  0  0  0
   -5.4280   -6.7690    0.0000 C   0  0  0  0  0  0  0  0  0  0  0  0
   -5.8690   -8.2020    0.0000 O   0  0  0  0  0  0  0  0  0  0  0  0
   -6.8050   -6.1750    0.0000 C   0  0  1  0  0  0  0  0  0  0  0  0
   -6.7380   -7.6740    0.0000 C   0  0  0  0  0  0  0  0  0  0  0  0
   -8.0230   -5.2990    0.0000 C   0  0  0  0  0  0  0  0  0  0  0  0
   -9.0240   -4.1820    0.0000 C   0  0  1  0  0  0  0  0  0  0  0  0
   -9.4630   -2.7480    0.0000 C   0  0  0  0  0  0  0  0  0  0  0  0
  -10.2010   -1.4420    0.0000 C   0  0  0  0  0  0  0  0  0  0  0  0
   -9.9970    0.0440    0.0000 C   0  0  0  0  0  0  0  0  0  0  0  0
  -10.1180    1.5400    0.0000 C   0  0  0  0  0  0  0  0  0  0  0  0
   -9.3100    2.8030    0.0000 C   0  0  0  0  0  0  0  0  0  0  0  0
   -8.7910    4.2110    0.0000 C   0  0  0  0  0  0  0  0  0  0  0  0
   -7.7300    5.2710    0.0000 C   0  0  1  0  0  0  0  0  0  0  0  0
   -6.4660    6.0780    0.0000 C   0  0  0  0  0  0  0  0  0  0  0  0
   -5.0580    6.5940    0.0000 C   0  0  1  0  0  0  0  0  0  0  0  0
   -3.7390    5.8790    0.0000 O   0  0  0  0  0  0  0  0  0  0  0  0
   -2.4600    6.6630    0.0000 C   0  0  1  0  0  0  0  0  0  0  0  0
   -0.6430    6.2320    0.0000 C   0  0  0  0  0  0  0  0  0  0  0  0
    0.1150    7.5270    0.0000 O   0  0  0  0  0  0  0  0  0  0  0  0
   -1.1420    5.9480    0.0000 O   0  0  0  0  0  0  0  0  0  0  0  0
   -2.5000    8.1620    0.0000 C   0  0  1  0  0  0  0  0  0  0  0  0
   -3.8190    8.8780    0.0000 C   0  0  0  0  0  0  0  0  0  0  0  0
   -5.0970    8.0940    0.0000 C   0  0  0  0  0  0  0  0  0  0  0  0
   -1.0170    7.9410    0.0000 C   0  0  0  0  0  0  0  0  0  0  0  0
   -9.1470    5.7630    0.0000 O   0  0  0  0  0  0  0  0  0  0  0  0
  -10.2820    4.7830    0.0000 C   0  0  0  0  0  0  0  0  0  0  0  0
   -9.9600    5.1510    0.0000 C   0  0  0  0  0  0  0  0  0  0  0  0
   -9.8780   -5.4150    0.0000 C   0  0  0  0  0  0  0  0  0  0  0  0
   -0.4830   -8.0600    0.0000 C   0  0  0  0  0  0  0  0  0  0  0  0
    2.8700   -5.6890    0.0000 C   0  0  0  0  0  0  0  0  0  0  0  0
    4.1460    3.4200    0.0000 C   0  0  0  0  0  0  0  0  0  0  0  0
    4.7640    4.7860    0.0000 C   0  0  0  0  0  0  0  0  0  0  0  0
    3.8900    6.0050    0.0000 C   0  0  0  0  0  0  0  0  0  0  0  0
    2.3970    5.8570    0.0000 C   0  0  0  0  0  0  0  0  0  0  0  0
    4.0280    2.6730    0.0000 H   0  0  0  0  0  0  0  0  0  0  0  0
    4.6370   -2.0410    0.0000 H   0  0  0  0  0  0  0  0  0  0  0  0
    5.6310   -1.7440    0.0000 H   0  0  0  0  0  0  0  0  0  0  0  0
    6.6650   -1.2780    0.0000 H   0  0  0  0  0  0  0  0  0  0  0  0
    5.7750    1.5870    0.0000 H   0  0  0  0  0  0  0  0  0  0  0  0
    6.7430    2.0100    0.0000 H   0  0  0  0  0  0  0  0  0  0  0  0
    7.8080   -2.1750    0.0000 H   0  0  0  0  0  0  0  0  0  0  0  0
    6.4860   -0.9760    0.0000 H   0  0  0  0  0  0  0  0  0  0  0  0
   10.7170   -1.8100    0.0000 H   0  0  0  0  0  0  0  0  0  0  0  0
    8.3550   -4.5250    0.0000 H   0  0  0  0  0  0  0  0  0  0  0  0
   10.9280   -2.9930    0.0000 H   0  0  0  0  0  0  0  0  0  0  0  0
   10.4400   -4.9200    0.0000 H   0  0  0  0  0  0  0  0  0  0  0  0
   11.7570    0.7370    0.0000 H   0  0  0  0  0  0  0  0  0  0  0  0
   12.9280   -2.6660    0.0000 H   0  0  0  0  0  0  0  0  0  0  0  0
   12.8870    0.3290    0.0000 H   0  0  0  0  0  0  0  0  0  0  0  0
   14.2000    0.4380    0.0000 H   0  0  0  0  0  0  0  0  0  0  0  0
   14.4230   -2.5540    0.0000 H   0  0  0  0  0  0  0  0  0  0  0  0
   16.4580    0.4050    0.0000 H   0  0  0  0  0  0  0  0  0  0  0  0
   10.2550    2.9040    0.0000 H   0  0  0  0  0  0  0  0  0  0  0  0
   11.6010    1.5230    0.0000 H   0  0  0  0  0  0  0  0  0  0  0  0
    7.4440    2.6940    0.0000 H   0  0  0  0  0  0  0  0  0  0  0  0
    9.3120    3.1690    0.0000 H   0  0  0  0  0  0  0  0  0  0  0  0
    2.7600    0.6370    0.0000 H   0  0  0  0  0  0  0  0  0  0  0  0
    5.5180    1.6840    0.0000 H   0  0  0  0  0  0  0  0  0  0  0  0
    4.3340    2.4020    0.0000 H   0  0  0  0  0  0  0  0  0  0  0  0
    4.1780   -3.6000    0.0000 H   0  0  0  0  0  0  0  0  0  0  0  0
    4.6170   -2.4070    0.0000 H   0  0  0  0  0  0  0  0  0  0  0  0
    1.3440   -6.5370    0.0000 H   0  0  0  0  0  0  0  0  0  0  0  0
   -0.6370   -4.4480    0.0000 H   0  0  0  0  0  0  0  0  0  0  0  0
   -2.7240   -8.4880    0.0000 H   0  0  0  0  0  0  0  0  0  0  0  0
   -2.0130   -9.5730    0.0000 H   0  0  0  0  0  0  0  0  0  0  0  0
   -4.8520   -8.2540    0.0000 H   0  0  0  0  0  0  0  0  0  0  0  0
   -2.8100  -10.4560    0.0000 H   0  0  0  0  0  0  0  0  0  0  0  0
   -5.4950   -9.1690    0.0000 H   0  0  0  0  0  0  0  0  0  0  0  0
   -4.8820  -10.9110    0.0000 H   0  0  0  0  0  0  0  0  0  0  0  0
   -8.0280   -7.0440    0.0000 H   0  0  0  0  0  0  0  0  0  0  0  0
   -5.2680   -7.9710    0.0000 H   0  0  0  0  0  0  0  0  0  0  0  0
   -8.2180   -7.9220    0.0000 H   0  0  0  0  0  0  0  0  0  0  0  0
   -6.6720   -9.1720    0.0000 H   0  0  0  0  0  0  0  0  0  0  0  0
   -9.3220   -6.0490    0.0000 H   0  0  0  0  0  0  0  0  0  0  0  0
   -8.2800   -6.7770    0.0000 H   0  0  0  0  0  0  0  0  0  0  0  0
  -10.4670   -3.7730    0.0000 H   0  0  0  0  0  0  0  0  0  0  0  0
   -8.0850   -2.1560    0.0000 H   0  0  0  0  0  0  0  0  0  0  0  0
  -11.7000   -1.4000    0.0000 H   0  0  0  0  0  0  0  0  0  0  0  0
   -8.4980    0.0030    0.0000 H   0  0  0  0  0  0  0  0  0  0  0  0
  -11.4620    2.2070    0.0000 H   0  0  0  0  0  0  0  0  0  0  0  0
   -7.9660    2.1360    0.0000 H   0  0  0  0  0  0  0  0  0  0  0  0
   -8.0850    6.7280    0.0000 H   0  0  0  0  0  0  0  0  0  0  0  0
   -6.4990    7.5770    0.0000 H   0  0  0  0  0  0  0  0  0  0  0  0
   -7.6380    7.0130    0.0000 H   0  0  0  0  0  0  0  0  0  0  0  0
   -6.1090    5.5240    0.0000 H   0  0  0  0  0  0  0  0  0  0  0  0
   -1.1020    4.4480    0.0000 H   0  0  0  0  0  0  0  0  0  0  0  0
   -2.0250    9.5850    0.0000 H   0  0  0  0  0  0  0  0  0  0  0  0
   -4.8130   10.0010    0.0000 H   0  0  0  0  0  0  0  0  0  0  0  0
   -2.8850   10.0520    0.0000 H   0  0  0  0  0  0  0  0  0  0  0  0
   -6.5930    7.9760    0.0000 H   0  0  0  0  0  0  0  0  0  0  0  0
   -5.6470    9.4890    0.0000 H   0  0  0  0  0  0  0  0  0  0  0  0
   -0.7950    9.4250    0.0000 H   0  0  0  0  0  0  0  0  0  0  0  0
   -0.5150    6.5270    0.0000 H   0  0  0  0  0  0  0  0  0  0  0  0
    0.4830    7.9020    0.0000 H   0  0  0  0  0  0  0  0  0  0  0  0
  -11.3940    5.7900    0.0000 H   0  0  0  0  0  0  0  0  0  0  0  0
   -9.6050    3.4440    0.0000 H   0  0  0  0  0  0  0  0  0  0  0  0
  -11.5280    3.9480    0.0000 H   0  0  0  0  0  0  0  0  0  0  0  0
   -9.3300    6.5130    0.0000 H   0  0  0  0  0  0  0  0  0  0  0  0
  -10.7510    3.8770    0.0000 H   0  0  0  0  0  0  0  0  0  0  0  0
  -11.0050    6.2270    0.0000 H   0  0  0  0  0  0  0  0  0  0  0  0
  -11.2060   -4.7180    0.0000 H   0  0  0  0  0  0  0  0  0  0  0  0
   -8.8870   -6.5420    0.0000 H   0  0  0  0  0  0  0  0  0  0  0  0
  -10.7310   -6.6490    0.0000 H   0  0  0  0  0  0  0  0  0  0  0  0
   -1.7240   -8.9010    0.0000 H   0  0  0  0  0  0  0  0  0  0  0  0
    0.9250   -7.5430    0.0000 H   0  0  0  0  0  0  0  0  0  0  0  0
    0.0340   -9.4680    0.0000 H   0  0  0  0  0  0  0  0  0  0  0  0
    2.3970   -7.1130    0.0000 H   0  0  0  0  0  0  0  0  0  0  0  0
    3.8220   -4.5300    0.0000 H   0  0  0  0  0  0  0  0  0  0  0  0
    4.2250   -6.3320    0.0000 H   0  0  0  0  0  0  0  0  0  0  0  0
    5.5990    3.0480    0.0000 H   0  0  0  0  0  0  0  0  0  0  0  0
    4.9110    2.1290    0.0000 H   0  0  0  0  0  0  0  0  0  0  0  0
    5.8130    5.8590    0.0000 H   0  0  0  0  0  0  0  0  0  0  0  0
    6.0030    3.9400    0.0000 H   0  0  0  0  0  0  0  0  0  0  0  0
    3.4850    7.4490    0.0000 H   0  0  0  0  0  0  0  0  0  0  0  0
    5.2420    6.6550    0.0000 H   0  0  0  0  0  0  0  0  0  0  0  0
    1.1740    6.7250    0.0000 H   0  0  0  0  0  0  0  0  0  0  0  0
    2.5110    7.3530    0.0000 H   0  0  0  0  0  0  0  0  0  0  0  0
  1  2  2  0  0  0  0
  2  3  1  0  0  0  0
  2 52  1  0  0  0  0
  3  4  1  0  0  0  0
  3 68  1  0  0  0  0
  4  5  1  0  0  0  0
  4 65  1  0  0  0  0
  4 69  1  1  0  0  0
  5  6  2  0  0  0  0
  5  7  1  0  0  0  0
  7  8  1  0  0  0  0
  8  9  1  0  0  0  0
  8 24  1  0  0  0  0
  8 70  1  6  0  0  0
  9 10  1  0  0  0  0
  9 23  1  0  0  0  0
  9 71  1  1  0  0  0
 10 11  1  0  0  0  0
 10 72  1  0  0  0  0
 10 73  1  0  0  0  0
 11 12  1  0  0  0  0
 11 22  1  0  0  0  0
 11 74  1  1  0  0  0
 12 13  1  0  0  0  0
 12 75  1  0  0  0  0
 12 76  1  0  0  0  0
 13 14  1  0  0  0  0
 13 16  1  0  0  0  0
 13 77  1  1  0  0  0
 14 15  1  0  0  0  0
 15 78  1  0  0  0  0
 15 79  1  0  0  0  0
 15 80  1  0  0  0  0
 16 17  1  0  0  0  0
 16 21  1  0  0  0  0
 16 81  1  1  0  0  0
 17 18  1  0  0  0  0
 18 19  1  0  0  0  0
 18 82  1  0  0  0  0
 18 83  1  0  0  0  0
 19 20  1  0  0  0  0
 19 84  1  0  0  0  0
 19 85  1  0  0  0  0
 20 86  1  0  0  0  0
 21 22  1  0  0  0  0
 21 87  1  0  0  0  0
 21 88  1  0  0  0  0
 22 89  1  0  0  0  0
 22 90  1  0  0  0  0
 23 91  1  0  0  0  0
 23 92  1  0  0  0  0
 23 93  1  0  0  0  0
 24 25  1  0  0  0  0
 24 94  1  0  0  0  0
 24 95  1  0  0  0  0
 25 26  2  0  0  0  0
 25 27  1  0  0  0  0
 27 28  1  0  0  0  0
 27 64  1  0  0  0  0
 27 96  1  1  0  0  0
 28 29  2  0  0  0  0
 28 97  1  0  0  0  0
 29 30  1  0  0  0  0
 29 63  1  0  0  0  0
 30 31  1  0  0  0  0
 30 32  1  0  0  0  0
 30 98  1  6  0  0  0
 31 99  1  0  0  0  0
 32 33  1  0  0  0  0
 32 35  1  0  0  0  0
 32100  1  6  0  0  0
 33 34  1  0  0  0  0
 34101  1  0  0  0  0
 34102  1  0  0  0  0
 34103  1  0  0  0  0
 35 36  2  0  0  0  0
 35 37  1  0  0  0  0
 37 38  1  0  0  0  0
 37 39  1  0  0  0  0
 37104  1  6  0  0  0
 38105  1  0  0  0  0
 38106  1  0  0  0  0
 38107  1  0  0  0  0
 39 40  1  0  0  0  0
 39108  1  0  0  0  0
 39109  1  0  0  0  0
 40 41  1  0  0  0  0
 40 62  1  0  0  0  0
 40110  1  1  0  0  0
 41 42  2  0  0  0  0
 41111  1  0  0  0  0
 42 43  1  0  0  0  0
 42112  1  0  0  0  0
 43 44  2  0  0  0  0
 43113  1  0  0  0  0
 44 45  1  0  0  0  0
 44114  1  0  0  0  0
 45 46  2  0  0  0  0
 45115  1  0  0  0  0
 46 47  1  0  0  0  0
 46 61  1  0  0  0  0
 47 48  1  0  0  0  0
 47 59  1  0  0  0  0
 47116  1  1  0  0  0
 48 49  1  0  0  0  0
 48117  1  0  0  0  0
 48118  1  0  0  0  0
 49 50  1  0  0  0  0
 49 57  1  0  0  0  0
 49119  1  1  0  0  0
 50 51  1  0  0  0  0
 51 52  1  0  0  0  0
 51 54  1  6  0  0  0
 51 55  1  0  0  0  0
 52 53  2  0  0  0  0
 54120  1  0  0  0  0
 55 56  1  0  0  0  0
 55 58  1  0  0  0  0
 55121  1  6  0  0  0
 56 57  1  0  0  0  0
 56122  1  0  0  0  0
 56123  1  0  0  0  0
 57124  1  0  0  0  0
 57125  1  0  0  0  0
 58126  1  0  0  0  0
 58127  1  0  0  0  0
 58128  1  0  0  0  0
 59 60  1  0  0  0  0
 60129  1  0  0  0  0
 60130  1  0  0  0  0
 60131  1  0  0  0  0
 61132  1  0  0  0  0
 61133  1  0  0  0  0
 61134  1  0  0  0  0
 62135  1  0  0  0  0
 62136  1  0  0  0  0
 62137  1  0  0  0  0
 63138  1  0  0  0  0
 63139  1  0  0  0  0
 63140  1  0  0  0  0
 64141  1  0  0  0  0
 64142  1  0  0  0  0
 64143  1  0  0  0  0
 65 66  1  0  0  0  0
 65144  1  0  0  0  0
 65145  1  0  0  0  0
 66 67  1  0  0  0  0
 66146  1  0  0  0  0
 66147  1  0  0  0  0
 67 68  1  0  0  0  0
 67148  1  0  0  0  0
 67149  1  0  0  0  0
 68150  1  0  0  0  0
 68151  1  0  0  0  0
M  END
$$$$
