2D_structures\o24_MMV690621_2D.pdb
 OpenBabel02282409193D

 39 42  0  0  1  0  0  0  0  0999 V2000
    5.6290   -3.7090    0.0000 Cl  0  0  0  0  0  0  0  0  0  0  0  0
    4.2760   -3.0610    0.0000 C   0  0  0  0  0  0  0  0  0  0  0  0
    4.1620   -1.5650    0.0000 C   0  0  0  0  0  0  0  0  0  0  0  0
    2.8090   -0.9170    0.0000 C   0  0  0  0  0  0  0  0  0  0  0  0
    1.5710   -1.7640    0.0000 C   0  0  0  0  0  0  0  0  0  0  0  0
    0.3830   -0.8490    0.0000 N   0  0  0  0  0  0  0  0  0  0  0  0
    0.8870    0.5640    0.0000 C   0  0  0  0  0  0  0  0  0  0  0  0
    2.3860    0.5220    0.0000 C   0  0  0  0  0  0  0  0  0  0  0  0
    3.1720    1.8000    0.0000 C   0  0  0  0  0  0  0  0  0  0  0  0
    2.4590    3.1190    0.0000 C   0  0  0  0  0  0  0  0  0  0  0  0
    0.9600    3.1610    0.0000 C   0  0  0  0  0  0  0  0  0  0  0  0
    0.1730    1.8840    0.0000 C   0  0  1  0  0  0  0  0  0  0  0  0
   -1.0020    0.9530    0.0000 N   0  0  0  0  0  0  0  0  0  0  0  0
   -2.3970    1.5050    0.0000 C   0  0  0  0  0  0  0  0  0  0  0  0
   -2.6160    2.9890    0.0000 O   0  0  0  0  0  0  0  0  0  0  0  0
   -3.5730    0.5740    0.0000 C   0  0  0  0  0  0  0  0  0  0  0  0
   -4.9670    1.1260    0.0000 N   0  0  0  0  0  0  0  0  0  0  0  0
   -6.1430    0.1950    0.0000 C   0  0  0  0  0  0  0  0  0  0  0  0
   -5.9240   -1.2890    0.0000 C   0  0  0  0  0  0  0  0  0  0  0  0
   -4.5300   -1.8420    0.0000 C   0  0  0  0  0  0  0  0  0  0  0  0
   -3.3540   -0.9100    0.0000 C   0  0  0  0  0  0  0  0  0  0  0  0
    1.6860   -3.2600    0.0000 C   0  0  0  0  0  0  0  0  0  0  0  0
    3.0390   -3.9080    0.0000 C   0  0  0  0  0  0  0  0  0  0  0  0
    5.4000   -0.7180    0.0000 H   0  0  0  0  0  0  0  0  0  0  0  0
   -0.8560   -1.3840    0.0000 H   0  0  0  0  0  0  0  0  0  0  0  0
    4.3480    2.7310    0.0000 H   0  0  0  0  0  0  0  0  0  0  0  0
    4.2940    0.8030    0.0000 H   0  0  0  0  0  0  0  0  0  0  0  0
    2.2400    4.6030    0.0000 H   0  0  0  0  0  0  0  0  0  0  0  0
    3.8830    3.5920    0.0000 H   0  0  0  0  0  0  0  0  0  0  0  0
   -0.4350    3.7140    0.0000 H   0  0  0  0  0  0  0  0  0  0  0  0
    1.2620    4.6310    0.0000 H   0  0  0  0  0  0  0  0  0  0  0  0
   -0.9480    2.8800    0.0000 H   0  0  0  0  0  0  0  0  0  0  0  0
   -0.9700   -0.3970    0.0000 H   0  0  0  0  0  0  0  0  0  0  0  0
   -7.5370    0.7470    0.0000 H   0  0  0  0  0  0  0  0  0  0  0  0
   -7.1000   -2.2210    0.0000 H   0  0  0  0  0  0  0  0  0  0  0  0
   -4.3110   -3.3260    0.0000 H   0  0  0  0  0  0  0  0  0  0  0  0
   -1.9590   -1.4630    0.0000 H   0  0  0  0  0  0  0  0  0  0  0  0
    0.4480   -4.1070    0.0000 H   0  0  0  0  0  0  0  0  0  0  0  0
    3.1530   -5.4040    0.0000 H   0  0  0  0  0  0  0  0  0  0  0  0
  1  2  1  0  0  0  0
  2  3  2  0  0  0  0
  2 23  1  0  0  0  0
  3  4  1  0  0  0  0
  3 24  1  0  0  0  0
  4  5  2  0  0  0  0
  4  8  1  0  0  0  0
  5  6  1  0  0  0  0
  5 22  1  0  0  0  0
  6  7  1  0  0  0  0
  6 25  1  0  0  0  0
  7  8  2  0  0  0  0
  7 12  1  0  0  0  0
  8  9  1  0  0  0  0
  9 10  1  0  0  0  0
  9 26  1  0  0  0  0
  9 27  1  0  0  0  0
 10 11  1  0  0  0  0
 10 28  1  0  0  0  0
 10 29  1  0  0  0  0
 11 12  1  0  0  0  0
 11 30  1  0  0  0  0
 11 31  1  0  0  0  0
 12 13  1  0  0  0  0
 12 32  1  1  0  0  0
 13 14  1  0  0  0  0
 13 33  1  0  0  0  0
 14 15  2  0  0  0  0
 14 16  1  0  0  0  0
 16 17  2  0  0  0  0
 16 21  1  0  0  0  0
 17 18  1  0  0  0  0
 18 19  2  0  0  0  0
 18 34  1  0  0  0  0
 19 20  1  0  0  0  0
 19 35  1  0  0  0  0
 20 21  2  0  0  0  0
 20 36  1  0  0  0  0
 21 37  1  0  0  0  0
 22 23  2  0  0  0  0
 22 38  1  0  0  0  0
 23 39  1  0  0  0  0
M  END
$$$$
