2D_structures\o25_MMV1782112_2D.pdb
 OpenBabel02282409193D

 68 70  0  0  1  0  0  0  0  0999 V2000
    2.8920    0.3440    0.0000 O   0  0  0  0  0  0  0  0  0  0  0  0
    3.1310    1.8250    0.0000 C   0  0  0  0  0  0  0  0  0  0  0  0
    2.0920    2.9070    0.0000 N   0  0  0  0  0  0  0  0  0  0  0  0
    2.5100    4.3480    0.0000 C   0  0  0  0  0  0  0  0  0  0  0  0
    3.9660    4.7070    0.0000 C   0  0  0  0  0  0  0  0  0  0  0  0
    5.0050    3.6250    0.0000 C   0  0  0  0  0  0  0  0  0  0  0  0
    4.5870    2.1840    0.0000 C   0  0  0  0  0  0  0  0  0  0  0  0
    5.6260    1.1020    0.0000 N   0  0  0  0  0  0  0  0  0  0  0  0
    7.0830    1.4610    0.0000 C   0  0  0  0  0  0  0  0  0  0  0  0
    7.5000    2.9010    0.0000 O   0  0  0  0  0  0  0  0  0  0  0  0
    8.1220    0.3790    0.0000 C   0  0  0  0  0  0  0  0  0  0  0  0
    9.6080    0.5830    0.0000 N   0  0  0  0  0  0  0  0  0  0  0  0
   10.2620   -0.7670    0.0000 O   0  0  0  0  0  0  0  0  0  0  0  0
    9.1800   -1.8060    0.0000 C   0  0  0  0  0  0  0  0  0  0  0  0
    7.8570   -1.0980    0.0000 C   0  0  0  0  0  0  0  0  0  0  0  0
    9.3840   -3.2920    0.0000 C   0  0  0  0  0  0  0  0  0  0  0  0
    0.6360    2.5480    0.0000 C   0  0  1  0  0  0  0  0  0  0  0  0
   -0.8210    2.1900    0.0000 C   0  0  0  0  0  0  0  0  0  0  0  0
   -1.8600    3.2720    0.0000 O   0  0  0  0  0  0  0  0  0  0  0  0
   -1.2380    0.7490    0.0000 N   0  0  0  0  0  0  0  0  0  0  0  0
   -2.6950    0.3900    0.0000 C   0  0  1  0  0  0  0  0  0  0  0  0
   -4.1510    0.0310    0.0000 C   0  0  0  0  0  0  0  0  0  0  0  0
   -5.1900    1.1130    0.0000 C   0  0  0  0  0  0  0  0  0  0  0  0
   -6.6470    0.7550    0.0000 C   0  0  0  0  0  0  0  0  0  0  0  0
   -7.0640   -0.6860    0.0000 O   0  0  0  0  0  0  0  0  0  0  0  0
   -7.6860    1.8360    0.0000 O   0  0  0  0  0  0  0  0  0  0  0  0
   -9.1420    1.4780    0.0000 C   0  0  0  0  0  0  0  0  0  0  0  0
  -10.5990    1.1190    0.0000 C   0  0  0  0  0  0  0  0  0  0  0  0
   -2.3360   -1.0660    0.0000 C   0  0  0  0  0  0  0  0  0  0  0  0
   -1.9770   -2.5230    0.0000 C   0  0  1  0  0  0  0  0  0  0  0  0
   -1.3240   -3.8730    0.0000 C   0  0  0  0  0  0  0  0  0  0  0  0
    0.1530   -4.1380    0.0000 O   0  0  0  0  0  0  0  0  0  0  0  0
   -2.4060   -4.9120    0.0000 N   0  0  0  0  0  0  0  0  0  0  0  0
   -3.7280   -4.2040    0.0000 C   0  0  0  0  0  0  0  0  0  0  0  0
   -3.4630   -2.7270    0.0000 C   0  0  0  0  0  0  0  0  0  0  0  0
    0.9940    1.0920    0.0000 C   0  0  0  0  0  0  0  0  0  0  0  0
    1.3530   -0.3650    0.0000 C   0  0  0  0  0  0  0  0  0  0  0  0
    1.4710    5.4300    0.0000 H   0  0  0  0  0  0  0  0  0  0  0  0
    4.3840    6.1470    0.0000 H   0  0  0  0  0  0  0  0  0  0  0  0
    6.4610    3.9830    0.0000 H   0  0  0  0  0  0  0  0  0  0  0  0
    5.2090   -0.3390    0.0000 H   0  0  0  0  0  0  0  0  0  0  0  0
    6.5070   -1.7510    0.0000 H   0  0  0  0  0  0  0  0  0  0  0  0
    7.8980   -3.4960    0.0000 H   0  0  0  0  0  0  0  0  0  0  0  0
   10.8700   -3.0870    0.0000 H   0  0  0  0  0  0  0  0  0  0  0  0
    9.5890   -4.7780    0.0000 H   0  0  0  0  0  0  0  0  0  0  0  0
    0.2770    4.0050    0.0000 H   0  0  0  0  0  0  0  0  0  0  0  0
   -0.1990   -0.3330    0.0000 H   0  0  0  0  0  0  0  0  0  0  0  0
   -3.0540    1.8470    0.0000 H   0  0  0  0  0  0  0  0  0  0  0  0
   -4.7410   -1.3480    0.0000 H   0  0  0  0  0  0  0  0  0  0  0  0
   -4.7730    2.5540    0.0000 H   0  0  0  0  0  0  0  0  0  0  0  0
   -9.5010    2.9340    0.0000 H   0  0  0  0  0  0  0  0  0  0  0  0
   -8.7830    0.0210    0.0000 H   0  0  0  0  0  0  0  0  0  0  0  0
  -10.2400   -0.3380    0.0000 H   0  0  0  0  0  0  0  0  0  0  0  0
  -10.9570    2.5750    0.0000 H   0  0  0  0  0  0  0  0  0  0  0  0
  -12.0550    0.7600    0.0000 H   0  0  0  0  0  0  0  0  0  0  0  0
   -3.1100   -1.2570    0.0000 H   0  0  0  0  0  0  0  0  0  0  0  0
   -0.8360   -1.0710    0.0000 H   0  0  0  0  0  0  0  0  0  0  0  0
   -0.5660   -2.0140    0.0000 H   0  0  0  0  0  0  0  0  0  0  0  0
   -2.2010   -6.3980    0.0000 H   0  0  0  0  0  0  0  0  0  0  0  0
   -4.2940   -5.5930    0.0000 H   0  0  0  0  0  0  0  0  0  0  0  0
   -5.1690   -3.7860    0.0000 H   0  0  0  0  0  0  0  0  0  0  0  0
   -4.9590   -2.6190    0.0000 H   0  0  0  0  0  0  0  0  0  0  0  0
   -3.5860   -1.9400    0.0000 H   0  0  0  0  0  0  0  0  0  0  0  0
   -0.3320    0.3910    0.0000 H   0  0  0  0  0  0  0  0  0  0  0  0
    2.4940    1.0880    0.0000 H   0  0  0  0  0  0  0  0  0  0  0  0
    0.0270   -1.0650    0.0000 H   0  0  0  0  0  0  0  0  0  0  0  0
    2.8420   -0.1860    0.0000 H   0  0  0  0  0  0  0  0  0  0  0  0
    1.7120   -1.8210    0.0000 H   0  0  0  0  0  0  0  0  0  0  0  0
  1  2  2  0  0  0  0
  2  3  1  0  0  0  0
  2  7  1  0  0  0  0
  3  4  1  0  0  0  0
  3 17  1  0  0  0  0
  4  5  2  0  0  0  0
  4 38  1  0  0  0  0
  5  6  1  0  0  0  0
  5 39  1  0  0  0  0
  6  7  2  0  0  0  0
  6 40  1  0  0  0  0
  7  8  1  0  0  0  0
  8  9  1  0  0  0  0
  8 41  1  0  0  0  0
  9 10  2  0  0  0  0
  9 11  1  0  0  0  0
 11 12  2  0  0  0  0
 11 15  1  0  0  0  0
 12 13  1  0  0  0  0
 13 14  1  0  0  0  0
 14 15  2  0  0  0  0
 14 16  1  0  0  0  0
 15 42  1  0  0  0  0
 16 43  1  0  0  0  0
 16 44  1  0  0  0  0
 16 45  1  0  0  0  0
 17 18  1  0  0  0  0
 17 36  1  0  0  0  0
 17 46  1  1  0  0  0
 18 19  2  0  0  0  0
 18 20  1  0  0  0  0
 20 21  1  0  0  0  0
 20 47  1  0  0  0  0
 21 22  1  0  0  0  0
 21 29  1  0  0  0  0
 21 48  1  1  0  0  0
 22 23  2  0  0  0  0
 22 49  1  0  0  0  0
 23 24  1  0  0  0  0
 23 50  1  0  0  0  0
 24 25  2  0  0  0  0
 24 26  1  0  0  0  0
 26 27  1  0  0  0  0
 27 28  1  0  0  0  0
 27 51  1  0  0  0  0
 27 52  1  0  0  0  0
 28 53  1  0  0  0  0
 28 54  1  0  0  0  0
 28 55  1  0  0  0  0
 29 30  1  0  0  0  0
 29 56  1  0  0  0  0
 29 57  1  0  0  0  0
 30 31  1  0  0  0  0
 30 35  1  0  0  0  0
 30 58  1  6  0  0  0
 31 32  2  0  0  0  0
 31 33  1  0  0  0  0
 33 34  1  0  0  0  0
 33 59  1  0  0  0  0
 34 35  1  0  0  0  0
 34 60  1  0  0  0  0
 34 61  1  0  0  0  0
 35 62  1  0  0  0  0
 35 63  1  0  0  0  0
 36 37  1  0  0  0  0
 36 64  1  0  0  0  0
 36 65  1  0  0  0  0
 37 66  1  0  0  0  0
 37 67  1  0  0  0  0
 37 68  1  0  0  0  0
M  END
$$$$
