2D_structures\o26_MMV1782107_2D.pdb
 OpenBabel02282409193D

 48 51  0  0  0  0  0  0  0  0999 V2000
    1.3960   -3.8910    0.0000 O   0  0  0  0  0  0  0  0  0  0  0  0
    2.1540   -2.5970    0.0000 C   0  0  0  0  0  0  0  0  0  0  0  0
    1.4130   -1.2930    0.0000 N   0  0  0  0  0  0  0  0  0  0  0  0
    2.1720    0.0010    0.0000 C   0  0  0  0  0  0  0  0  0  0  0  0
    3.6720   -0.0090    0.0000 C   0  0  0  0  0  0  0  0  0  0  0  0
    4.4310    1.2850    0.0000 N   0  0  0  0  0  0  0  0  0  0  0  0
    5.9310    1.2750    0.0000 C   0  0  0  0  0  0  0  0  0  0  0  0
    6.6890    2.5690    0.0000 C   0  0  0  0  0  0  0  0  0  0  0  0
    8.1890    2.5580    0.0000 C   0  0  0  0  0  0  0  0  0  0  0  0
    8.9310    1.2540    0.0000 C   0  0  0  0  0  0  0  0  0  0  0  0
    8.1720   -0.0400    0.0000 C   0  0  0  0  0  0  0  0  0  0  0  0
    6.6720   -0.0300    0.0000 C   0  0  0  0  0  0  0  0  0  0  0  0
    4.4130   -1.3130    0.0000 C   0  0  0  0  0  0  0  0  0  0  0  0
    3.6540   -2.6070    0.0000 N   0  0  0  0  0  0  0  0  0  0  0  0
    5.3890   -1.4400    0.0000 O   0  0  0  0  0  0  0  0  0  0  0  0
   -0.0870   -1.2830    0.0000 C   0  0  0  0  0  0  0  0  0  0  0  0
   -1.5870   -1.2730    0.0000 C   0  0  0  0  0  0  0  0  0  0  0  0
   -2.3280    0.0310    0.0000 C   0  0  0  0  0  0  0  0  0  0  0  0
   -3.8280    0.0420    0.0000 C   0  0  0  0  0  0  0  0  0  0  0  0
   -4.5870   -1.2520    0.0000 C   0  0  0  0  0  0  0  0  0  0  0  0
   -3.8460   -2.5560    0.0000 C   0  0  0  0  0  0  0  0  0  0  0  0
   -2.3460   -2.5670    0.0000 C   0  0  0  0  0  0  0  0  0  0  0  0
   -4.5690    1.3460    0.0000 O   0  0  0  0  0  0  0  0  0  0  0  0
   -6.0690    1.3560    0.0000 C   0  0  0  0  0  0  0  0  0  0  0  0
   -6.8100    2.6600    0.0000 C   0  0  0  0  0  0  0  0  0  0  0  0
   -8.3100    2.6700    0.0000 C   0  0  0  0  0  0  0  0  0  0  0  0
   -9.0690    1.3760    0.0000 C   0  0  0  0  0  0  0  0  0  0  0  0
   -8.3280    0.0720    0.0000 C   0  0  0  0  0  0  0  0  0  0  0  0
   -6.8280    0.0620    0.0000 C   0  0  0  0  0  0  0  0  0  0  0  0
    1.4310    1.3050    0.0000 H   0  0  0  0  0  0  0  0  0  0  0  0
    3.6890    2.5890    0.0000 H   0  0  0  0  0  0  0  0  0  0  0  0
    5.9480    3.8730    0.0000 H   0  0  0  0  0  0  0  0  0  0  0  0
    8.9480    3.8520    0.0000 H   0  0  0  0  0  0  0  0  0  0  0  0
   10.4310    1.2440    0.0000 H   0  0  0  0  0  0  0  0  0  0  0  0
    8.9130   -1.3440    0.0000 H   0  0  0  0  0  0  0  0  0  0  0  0
    6.2810   -0.9330    0.0000 H   0  0  0  0  0  0  0  0  0  0  0  0
    4.3950   -3.9110    0.0000 H   0  0  0  0  0  0  0  0  0  0  0  0
   -0.0970   -2.7830    0.0000 H   0  0  0  0  0  0  0  0  0  0  0  0
   -0.0770    0.2170    0.0000 H   0  0  0  0  0  0  0  0  0  0  0  0
   -1.5690    1.3250    0.0000 H   0  0  0  0  0  0  0  0  0  0  0  0
   -5.5640   -1.3660    0.0000 H   0  0  0  0  0  0  0  0  0  0  0  0
   -4.6040   -3.8500    0.0000 H   0  0  0  0  0  0  0  0  0  0  0  0
   -1.6040   -3.8710    0.0000 H   0  0  0  0  0  0  0  0  0  0  0  0
   -6.0510    3.9540    0.0000 H   0  0  0  0  0  0  0  0  0  0  0  0
   -9.0510    3.9740    0.0000 H   0  0  0  0  0  0  0  0  0  0  0  0
  -10.5690    1.3860    0.0000 H   0  0  0  0  0  0  0  0  0  0  0  0
   -9.0870   -1.2220    0.0000 H   0  0  0  0  0  0  0  0  0  0  0  0
   -6.4490   -0.8470    0.0000 H   0  0  0  0  0  0  0  0  0  0  0  0
  1  2  2  0  0  0  0
  2  3  1  0  0  0  0
  2 14  1  0  0  0  0
  3  4  1  0  0  0  0
  3 16  1  0  0  0  0
  4  5  2  0  0  0  0
  4 30  1  0  0  0  0
  5  6  1  0  0  0  0
  5 13  1  0  0  0  0
  6  7  1  0  0  0  0
  6 31  1  0  0  0  0
  7  8  2  0  0  0  0
  7 12  1  0  0  0  0
  8  9  1  0  0  0  0
  8 32  1  0  0  0  0
  9 10  2  0  0  0  0
  9 33  1  0  0  0  0
 10 11  1  0  0  0  0
 10 34  1  0  0  0  0
 11 12  2  0  0  0  0
 11 35  1  0  0  0  0
 12 36  1  0  0  0  0
 13 14  1  0  0  0  0
 13 15  2  0  0  0  0
 14 37  1  0  0  0  0
 16 17  1  0  0  0  0
 16 38  1  0  0  0  0
 16 39  1  0  0  0  0
 17 18  2  0  0  0  0
 17 22  1  0  0  0  0
 18 19  1  0  0  0  0
 18 40  1  0  0  0  0
 19 20  2  0  0  0  0
 19 23  1  0  0  0  0
 20 21  1  0  0  0  0
 20 41  1  0  0  0  0
 21 22  2  0  0  0  0
 21 42  1  0  0  0  0
 22 43  1  0  0  0  0
 23 24  1  0  0  0  0
 24 25  2  0  0  0  0
 24 29  1  0  0  0  0
 25 26  1  0  0  0  0
 25 44  1  0  0  0  0
 26 27  2  0  0  0  0
 26 45  1  0  0  0  0
 27 28  1  0  0  0  0
 27 46  1  0  0  0  0
 28 29  2  0  0  0  0
 28 47  1  0  0  0  0
 29 48  1  0  0  0  0
M  END
$$$$
