2D_structures\o27_MMV1782106_2D.pdb
 OpenBabel02282409193D

 42 43  0  0  0  0  0  0  0  0999 V2000
   -1.1150   -2.9930    0.0000 O   0  0  0  0  0  0  0  0  0  0  0  0
   -2.1790   -1.9340    0.0000 C   0  0  0  0  0  0  0  0  0  0  0  0
   -3.6270   -2.3260    0.0000 N   0  0  0  0  0  0  0  0  0  0  0  0
   -4.6900   -1.2680    0.0000 C   0  0  0  0  0  0  0  0  0  0  0  0
   -4.3050    0.1820    0.0000 C   0  0  0  0  0  0  0  0  0  0  0  0
   -5.3680    1.2400    0.0000 C   0  0  0  0  0  0  0  0  0  0  0  0
   -6.4310    2.2990    0.0000 C   0  0  0  0  0  0  0  0  0  0  0  0
   -2.8570    0.5740    0.0000 C   0  0  0  0  0  0  0  0  0  0  0  0
   -1.7940   -0.4850    0.0000 C   0  0  0  0  0  0  0  0  0  0  0  0
   -0.3460   -0.0930    0.0000 C   0  0  0  0  0  0  0  0  0  0  0  0
    1.1020    0.2990    0.0000 C   0  0  0  0  0  0  0  0  0  0  0  0
    2.5500    0.6900    0.0000 C   0  0  0  0  0  0  0  0  0  0  0  0
    2.9350    2.1400    0.0000 O   0  0  0  0  0  0  0  0  0  0  0  0
    3.6130   -0.3680    0.0000 N   0  0  0  0  0  0  0  0  0  0  0  0
    5.0610    0.0230    0.0000 C   0  0  0  0  0  0  0  0  0  0  0  0
    6.1250   -1.0350    0.0000 C   0  0  0  0  0  0  0  0  0  0  0  0
    5.7400   -2.4850    0.0000 O   0  0  0  0  0  0  0  0  0  0  0  0
    7.5730   -0.6430    0.0000 C   0  0  0  0  0  0  0  0  0  0  0  0
    7.9570    0.8070    0.0000 C   0  0  0  0  0  0  0  0  0  0  0  0
    6.8940    1.8650    0.0000 C   0  0  0  0  0  0  0  0  0  0  0  0
    5.4460    1.4730    0.0000 C   0  0  0  0  0  0  0  0  0  0  0  0
   -6.1380   -1.6590    0.0000 C   0  0  0  0  0  0  0  0  0  0  0  0
   -4.0110   -3.7760    0.0000 H   0  0  0  0  0  0  0  0  0  0  0  0
   -6.3240    0.4900    0.0000 H   0  0  0  0  0  0  0  0  0  0  0  0
   -4.3100    2.3030    0.0000 H   0  0  0  0  0  0  0  0  0  0  0  0
   -7.4940    3.3570    0.0000 H   0  0  0  0  0  0  0  0  0  0  0  0
   -7.4890    1.2360    0.0000 H   0  0  0  0  0  0  0  0  0  0  0  0
   -5.3730    3.3620    0.0000 H   0  0  0  0  0  0  0  0  0  0  0  0
   -2.4720    2.0230    0.0000 H   0  0  0  0  0  0  0  0  0  0  0  0
    0.0460   -1.5410    0.0000 H   0  0  0  0  0  0  0  0  0  0  0  0
   -0.7370    1.3550    0.0000 H   0  0  0  0  0  0  0  0  0  0  0  0
    1.4940   -1.1490    0.0000 H   0  0  0  0  0  0  0  0  0  0  0  0
    0.7110    1.7470    0.0000 H   0  0  0  0  0  0  0  0  0  0  0  0
    3.2290   -1.8180    0.0000 H   0  0  0  0  0  0  0  0  0  0  0  0
    6.8030   -3.5430    0.0000 H   0  0  0  0  0  0  0  0  0  0  0  0
    8.6360   -1.7010    0.0000 H   0  0  0  0  0  0  0  0  0  0  0  0
    9.4050    1.1980    0.0000 H   0  0  0  0  0  0  0  0  0  0  0  0
    7.2790    3.3150    0.0000 H   0  0  0  0  0  0  0  0  0  0  0  0
    4.3830    2.5310    0.0000 H   0  0  0  0  0  0  0  0  0  0  0  0
   -7.5860   -2.0510    0.0000 H   0  0  0  0  0  0  0  0  0  0  0  0
   -5.7460   -3.1070    0.0000 H   0  0  0  0  0  0  0  0  0  0  0  0
   -6.5950   -0.5340    0.0000 H   0  0  0  0  0  0  0  0  0  0  0  0
  1  2  2  0  0  0  0
  2  3  1  0  0  0  0
  2  9  1  0  0  0  0
  3  4  1  0  0  0  0
  3 23  1  0  0  0  0
  4  5  2  0  0  0  0
  4 22  1  0  0  0  0
  5  6  1  0  0  0  0
  5  8  1  0  0  0  0
  6  7  1  0  0  0  0
  6 24  1  0  0  0  0
  6 25  1  0  0  0  0
  7 26  1  0  0  0  0
  7 27  1  0  0  0  0
  7 28  1  0  0  0  0
  8  9  2  0  0  0  0
  8 29  1  0  0  0  0
  9 10  1  0  0  0  0
 10 11  1  0  0  0  0
 10 30  1  0  0  0  0
 10 31  1  0  0  0  0
 11 12  1  0  0  0  0
 11 32  1  0  0  0  0
 11 33  1  0  0  0  0
 12 13  2  0  0  0  0
 12 14  1  0  0  0  0
 14 15  1  0  0  0  0
 14 34  1  0  0  0  0
 15 16  2  0  0  0  0
 15 21  1  0  0  0  0
 16 17  1  0  0  0  0
 16 18  1  0  0  0  0
 17 35  1  0  0  0  0
 18 19  2  0  0  0  0
 18 36  1  0  0  0  0
 19 20  1  0  0  0  0
 19 37  1  0  0  0  0
 20 21  2  0  0  0  0
 20 38  1  0  0  0  0
 21 39  1  0  0  0  0
 22 40  1  0  0  0  0
 22 41  1  0  0  0  0
 22 42  1  0  0  0  0
M  END
$$$$
