2D_structures\o29_MMV1782104_2D.pdb
 OpenBabel02282409193D

 32 33  0  0  1  0  0  0  0  0999 V2000
    1.6850   -2.4330    0.0000 O   0  0  0  0  0  0  0  0  0  0  0  0
    1.9320   -0.9530    0.0000 C   0  0  0  0  0  0  0  0  0  0  0  0
    0.7750    0.0010    0.0000 N   0  0  0  0  0  0  0  0  0  0  0  0
    1.0230    1.4800    0.0000 C   0  0  0  0  0  0  0  0  0  0  0  0
    2.4280    2.0060    0.0000 C   0  0  0  0  0  0  0  0  0  0  0  0
    3.5850    1.0510    0.0000 N   0  0  0  0  0  0  0  0  0  0  0  0
    3.3380   -0.4280    0.0000 C   0  0  0  0  0  0  0  0  0  0  0  0
    4.4950   -1.3830    0.0000 C   0  0  0  0  0  0  0  0  0  0  0  0
    4.2470   -2.8620    0.0000 O   0  0  0  0  0  0  0  0  0  0  0  0
    5.9000   -0.8580    0.0000 N   0  0  0  0  0  0  0  0  0  0  0  0
   -0.6300   -0.5240    0.0000 C   0  0  1  0  0  0  0  0  0  0  0  0
   -1.8950   -1.3300    0.0000 O   0  0  0  0  0  0  0  0  0  0  0  0
   -3.0520   -0.3750    0.0000 C   0  0  1  0  0  0  0  0  0  0  0  0
   -3.8810   -1.6260    0.0000 C   0  0  0  0  0  0  0  0  0  0  0  0
   -4.7090   -2.8770    0.0000 O   0  0  0  0  0  0  0  0  0  0  0  0
   -2.5020    1.0200    0.0000 C   0  0  1  0  0  0  0  0  0  0  0  0
   -1.0050    0.9280    0.0000 C   0  0  1  0  0  0  0  0  0  0  0  0
   -1.0700    2.4270    0.0000 O   0  0  0  0  0  0  0  0  0  0  0  0
   -3.9480    1.4210    0.0000 O   0  0  0  0  0  0  0  0  0  0  0  0
    0.3460    2.1950    0.0000 H   0  0  0  0  0  0  0  0  0  0  0  0
    2.6760    3.4850    0.0000 H   0  0  0  0  0  0  0  0  0  0  0  0
    7.0570   -1.8120    0.0000 H   0  0  0  0  0  0  0  0  0  0  0  0
    6.1480    0.6220    0.0000 H   0  0  0  0  0  0  0  0  0  0  0  0
    0.0390   -1.8660    0.0000 H   0  0  0  0  0  0  0  0  0  0  0  0
   -4.3830    0.3180    0.0000 H   0  0  0  0  0  0  0  0  0  0  0  0
   -5.1310   -0.7980    0.0000 H   0  0  0  0  0  0  0  0  0  0  0  0
   -2.6300   -2.4540    0.0000 H   0  0  0  0  0  0  0  0  0  0  0  0
   -4.0400   -4.2190    0.0000 H   0  0  0  0  0  0  0  0  0  0  0  0
   -2.2540    2.5000    0.0000 H   0  0  0  0  0  0  0  0  0  0  0  0
    0.0050    1.3470    0.0000 H   0  0  0  0  0  0  0  0  0  0  0  0
   -0.2260    3.1220    0.0000 H   0  0  0  0  0  0  0  0  0  0  0  0
   -4.3230    2.8740    0.0000 H   0  0  0  0  0  0  0  0  0  0  0  0
  1  2  2  0  0  0  0
  2  3  1  0  0  0  0
  2  7  1  0  0  0  0
  3  4  1  0  0  0  0
  3 11  1  0  0  0  0
  4  5  2  0  0  0  0
  4 20  1  0  0  0  0
  5  6  1  0  0  0  0
  5 21  1  0  0  0  0
  6  7  2  0  0  0  0
  7  8  1  0  0  0  0
  8  9  2  0  0  0  0
  8 10  1  0  0  0  0
 10 22  1  0  0  0  0
 10 23  1  0  0  0  0
 11 12  1  0  0  0  0
 11 17  1  0  0  0  0
 11 24  1  6  0  0  0
 12 13  1  0  0  0  0
 13 14  1  0  0  0  0
 13 16  1  0  0  0  0
 13 25  1  6  0  0  0
 14 15  1  0  0  0  0
 14 26  1  0  0  0  0
 14 27  1  0  0  0  0
 15 28  1  0  0  0  0
 16 17  1  0  0  0  0
 16 19  1  0  0  0  0
 16 29  1  1  0  0  0
 17 18  1  0  0  0  0
 17 30  1  6  0  0  0
 18 31  1  0  0  0  0
 19 32  1  0  0  0  0
M  END
$$$$
