2D_structures\o2_MMV642550_2D.pdb
 OpenBabel02282409193D

 40 43  0  0  1  0  0  0  0  0999 V2000
   -2.3970    2.9780    0.0000 S   0  0  0  0  0  0  0  0  0  0  0  0
   -1.9110    1.5580    0.0000 C   0  0  0  0  0  0  0  0  0  0  0  0
   -3.1110    0.6580    0.0000 N   0  0  0  0  0  0  0  0  0  0  0  0
   -4.3380    1.5200    0.0000 C   0  0  0  0  0  0  0  0  0  0  0  0
   -3.8970    2.9540    0.0000 C   0  0  0  0  0  0  0  0  0  0  0  0
   -0.4770    1.1170    0.0000 N   0  0  0  0  0  0  0  0  0  0  0  0
   -0.1430   -0.3450    0.0000 C   0  0  1  0  0  0  0  0  0  0  0  0
    1.3190   -0.0100    0.0000 C   0  0  0  0  0  0  0  0  0  0  0  0
    2.3400   -1.1090    0.0000 C   0  0  0  0  0  0  0  0  0  0  0  0
    1.8990   -2.5430    0.0000 O   0  0  0  0  0  0  0  0  0  0  0  0
    3.8030   -0.7750    0.0000 C   0  0  0  0  0  0  0  0  0  0  0  0
    4.8240   -1.8740    0.0000 N   0  0  0  0  0  0  0  0  0  0  0  0
    6.2860   -1.5390    0.0000 C   0  0  0  0  0  0  0  0  0  0  0  0
    6.7270   -0.1050    0.0000 C   0  0  0  0  0  0  0  0  0  0  0  0
    5.7060    0.9940    0.0000 C   0  0  0  0  0  0  0  0  0  0  0  0
    4.2440    0.6590    0.0000 C   0  0  0  0  0  0  0  0  0  0  0  0
    3.2230    1.7580    0.0000 C   0  0  0  0  0  0  0  0  0  0  0  0
    1.7610    1.4230    0.0000 C   0  0  0  0  0  0  0  0  0  0  0  0
   -1.6050   -0.6800    0.0000 C   0  0  0  0  0  0  0  0  0  0  0  0
   -2.0460   -2.1130    0.0000 C   0  0  0  0  0  0  0  0  0  0  0  0
   -3.5080   -2.4480    0.0000 C   0  0  0  0  0  0  0  0  0  0  0  0
   -4.5290   -1.3490    0.0000 C   0  0  0  0  0  0  0  0  0  0  0  0
   -4.0880    0.0840    0.0000 C   0  0  0  0  0  0  0  0  0  0  0  0
   -2.6260    0.4190    0.0000 C   0  0  0  0  0  0  0  0  0  0  0  0
   -3.9500   -3.8820    0.0000 O   0  0  0  0  0  0  0  0  0  0  0  0
   -5.8060    1.2110    0.0000 H   0  0  0  0  0  0  0  0  0  0  0  0
   -4.7970    4.1540    0.0000 H   0  0  0  0  0  0  0  0  0  0  0  0
    0.4890    2.2640    0.0000 H   0  0  0  0  0  0  0  0  0  0  0  0
    0.1920   -1.8070    0.0000 H   0  0  0  0  0  0  0  0  0  0  0  0
    0.4370   -2.8780    0.0000 H   0  0  0  0  0  0  0  0  0  0  0  0
    7.3070   -2.6380    0.0000 H   0  0  0  0  0  0  0  0  0  0  0  0
    8.1890    0.2300    0.0000 H   0  0  0  0  0  0  0  0  0  0  0  0
    6.1470    2.4270    0.0000 H   0  0  0  0  0  0  0  0  0  0  0  0
    3.6640    3.1920    0.0000 H   0  0  0  0  0  0  0  0  0  0  0  0
    0.8810    2.6380    0.0000 H   0  0  0  0  0  0  0  0  0  0  0  0
   -1.0250   -3.2120    0.0000 H   0  0  0  0  0  0  0  0  0  0  0  0
   -5.9910   -1.6840    0.0000 H   0  0  0  0  0  0  0  0  0  0  0  0
   -5.2350    1.0510    0.0000 H   0  0  0  0  0  0  0  0  0  0  0  0
   -2.5450    1.9170    0.0000 H   0  0  0  0  0  0  0  0  0  0  0  0
   -5.4120   -4.2160    0.0000 H   0  0  0  0  0  0  0  0  0  0  0  0
  1  2  1  0  0  0  0
  1  5  1  0  0  0  0
  2  3  2  0  0  0  0
  2  6  1  0  0  0  0
  3  4  1  0  0  0  0
  4  5  2  0  0  0  0
  4 26  1  0  0  0  0
  5 27  1  0  0  0  0
  6  7  1  0  0  0  0
  6 28  1  0  0  0  0
  7  8  1  0  0  0  0
  7 19  1  0  0  0  0
  7 29  1  6  0  0  0
  8  9  2  0  0  0  0
  8 18  1  0  0  0  0
  9 10  1  0  0  0  0
  9 11  1  0  0  0  0
 10 30  1  0  0  0  0
 11 12  2  0  0  0  0
 11 16  1  0  0  0  0
 12 13  1  0  0  0  0
 13 14  2  0  0  0  0
 13 31  1  0  0  0  0
 14 15  1  0  0  0  0
 14 32  1  0  0  0  0
 15 16  2  0  0  0  0
 15 33  1  0  0  0  0
 16 17  1  0  0  0  0
 17 18  2  0  0  0  0
 17 34  1  0  0  0  0
 18 35  1  0  0  0  0
 19 20  2  0  0  0  0
 19 24  1  0  0  0  0
 20 21  1  0  0  0  0
 20 36  1  0  0  0  0
 21 22  2  0  0  0  0
 21 25  1  0  0  0  0
 22 23  1  0  0  0  0
 22 37  1  0  0  0  0
 23 24  2  0  0  0  0
 23 38  1  0  0  0  0
 24 39  1  0  0  0  0
 25 40  1  0  0  0  0
M  END
$$$$
