2D_structures\o31_MMV1633969_2D.pdb
 OpenBabel02282409193D

 49 52  0  0  1  0  0  0  0  0999 V2000
    4.6240   -2.5730    0.0000 O   0  0  0  0  0  0  0  0  0  0  0  0
    3.4050   -1.6990    0.0000 C   0  0  0  0  0  0  0  0  0  0  0  0
    2.0390   -2.3180    0.0000 N   0  0  0  0  0  0  0  0  0  0  0  0
    0.8200   -1.4440    0.0000 C   0  0  0  0  0  0  0  0  0  0  0  0
   -0.6460   -1.7650    0.0000 O   0  0  0  0  0  0  0  0  0  0  0  0
   -1.4040   -0.4710    0.0000 C   0  0  0  0  0  0  0  0  0  0  0  0
   -0.4070    0.6500    0.0000 C   0  0  0  0  0  0  0  0  0  0  0  0
    0.9670    0.0490    0.0000 C   0  0  0  0  0  0  0  0  0  0  0  0
    2.3330    0.6680    0.0000 C   0  0  0  0  0  0  0  0  0  0  0  0
    3.5520   -0.2060    0.0000 N   0  0  0  0  0  0  0  0  0  0  0  0
    4.9190    0.4120    0.0000 C   0  0  1  0  0  0  0  0  0  0  0  0
    6.1270    1.3020    0.0000 O   0  0  0  0  0  0  0  0  0  0  0  0
    7.3460    0.4280    0.0000 C   0  0  1  0  0  0  0  0  0  0  0  0
    8.0880    1.7310    0.0000 C   0  0  0  0  0  0  0  0  0  0  0  0
    8.8300    3.0350    0.0000 O   0  0  0  0  0  0  0  0  0  0  0  0
    6.8910   -1.0020    0.0000 C   0  0  1  0  0  0  0  0  0  0  0  0
    5.3910   -1.0110    0.0000 C   0  0  0  0  0  0  0  0  0  0  0  0
    8.3610   -1.3050    0.0000 O   0  0  0  0  0  0  0  0  0  0  0  0
   -2.8970   -0.3230    0.0000 C   0  0  0  0  0  0  0  0  0  0  0  0
   -3.5150    1.0430    0.0000 C   0  0  0  0  0  0  0  0  0  0  0  0
   -5.0080    1.1900    0.0000 C   0  0  0  0  0  0  0  0  0  0  0  0
   -5.8820   -0.0290    0.0000 C   0  0  0  0  0  0  0  0  0  0  0  0
   -7.3750    0.1190    0.0000 C   0  0  0  0  0  0  0  0  0  0  0  0
   -8.8680    0.2660    0.0000 C   0  0  0  0  0  0  0  0  0  0  0  0
  -10.3600    0.4140    0.0000 C   0  0  0  0  0  0  0  0  0  0  0  0
   -5.2630   -1.3950    0.0000 C   0  0  0  0  0  0  0  0  0  0  0  0
   -3.7710   -1.5420    0.0000 C   0  0  0  0  0  0  0  0  0  0  0  0
   -0.7280    2.1150    0.0000 H   0  0  0  0  0  0  0  0  0  0  0  0
    2.4810    2.1600    0.0000 H   0  0  0  0  0  0  0  0  0  0  0  0
    4.1610    1.7070    0.0000 H   0  0  0  0  0  0  0  0  0  0  0  0
    8.7200   -0.1740    0.0000 H   0  0  0  0  0  0  0  0  0  0  0  0
    9.3910    0.9890    0.0000 H   0  0  0  0  0  0  0  0  0  0  0  0
    6.7840    2.4730    0.0000 H   0  0  0  0  0  0  0  0  0  0  0  0
    8.0710    4.3290    0.0000 H   0  0  0  0  0  0  0  0  0  0  0  0
    6.7440   -2.4950    0.0000 H   0  0  0  0  0  0  0  0  0  0  0  0
    5.5580   -2.5020    0.0000 H   0  0  0  0  0  0  0  0  0  0  0  0
    4.3030   -1.5510    0.0000 H   0  0  0  0  0  0  0  0  0  0  0  0
    8.8330   -2.7280    0.0000 H   0  0  0  0  0  0  0  0  0  0  0  0
   -2.6410    2.2620    0.0000 H   0  0  0  0  0  0  0  0  0  0  0  0
   -5.6270    2.5570    0.0000 H   0  0  0  0  0  0  0  0  0  0  0  0
   -7.5220   -1.3740    0.0000 H   0  0  0  0  0  0  0  0  0  0  0  0
   -7.2270    1.6120    0.0000 H   0  0  0  0  0  0  0  0  0  0  0  0
   -8.7200    1.7590    0.0000 H   0  0  0  0  0  0  0  0  0  0  0  0
   -9.0150   -1.2270    0.0000 H   0  0  0  0  0  0  0  0  0  0  0  0
  -11.8530    0.5610    0.0000 H   0  0  0  0  0  0  0  0  0  0  0  0
  -10.5080   -1.0790    0.0000 H   0  0  0  0  0  0  0  0  0  0  0  0
  -10.2130    1.9060    0.0000 H   0  0  0  0  0  0  0  0  0  0  0  0
   -6.1370   -2.6140    0.0000 H   0  0  0  0  0  0  0  0  0  0  0  0
   -3.1520   -2.9090    0.0000 H   0  0  0  0  0  0  0  0  0  0  0  0
  1  2  2  0  0  0  0
  2  3  1  0  0  0  0
  2 10  1  0  0  0  0
  3  4  2  0  0  0  0
  4  5  1  0  0  0  0
  4  8  1  0  0  0  0
  5  6  1  0  0  0  0
  6  7  2  0  0  0  0
  6 19  1  0  0  0  0
  7  8  1  0  0  0  0
  7 28  1  0  0  0  0
  8  9  2  0  0  0  0
  9 10  1  0  0  0  0
  9 29  1  0  0  0  0
 10 11  1  0  0  0  0
 11 12  1  0  0  0  0
 11 17  1  0  0  0  0
 11 30  1  6  0  0  0
 12 13  1  0  0  0  0
 13 14  1  0  0  0  0
 13 16  1  0  0  0  0
 13 31  1  6  0  0  0
 14 15  1  0  0  0  0
 14 32  1  0  0  0  0
 14 33  1  0  0  0  0
 15 34  1  0  0  0  0
 16 17  1  0  0  0  0
 16 18  1  0  0  0  0
 16 35  1  1  0  0  0
 17 36  1  0  0  0  0
 17 37  1  0  0  0  0
 18 38  1  0  0  0  0
 19 20  2  0  0  0  0
 19 27  1  0  0  0  0
 20 21  1  0  0  0  0
 20 39  1  0  0  0  0
 21 22  2  0  0  0  0
 21 40  1  0  0  0  0
 22 23  1  0  0  0  0
 22 26  1  0  0  0  0
 23 24  1  0  0  0  0
 23 41  1  0  0  0  0
 23 42  1  0  0  0  0
 24 25  1  0  0  0  0
 24 43  1  0  0  0  0
 24 44  1  0  0  0  0
 25 45  1  0  0  0  0
 25 46  1  0  0  0  0
 25 47  1  0  0  0  0
 26 27  2  0  0  0  0
 26 48  1  0  0  0  0
 27 49  1  0  0  0  0
M  END
$$$$
