2D_structures\o32_MMV596723_2D.pdb
 OpenBabel02282409193D

 44 47  0  0  0  0  0  0  0  0999 V2000
    2.1980    2.5220    0.0000 O   0  0  0  0  0  0  0  0  0  0  0  0
    1.6890    1.1120    0.0000 C   0  0  0  0  0  0  0  0  0  0  0  0
    0.2120    0.8480    0.0000 N   0  0  0  0  0  0  0  0  0  0  0  0
   -0.7550    1.9940    0.0000 C   0  0  0  0  0  0  0  0  0  0  0  0
   -2.2310    1.7310    0.0000 C   0  0  0  0  0  0  0  0  0  0  0  0
   -2.7410    0.3200    0.0000 N   0  0  0  0  0  0  0  0  0  0  0  0
   -4.2180    0.0560    0.0000 C   0  0  0  0  0  0  0  0  0  0  0  0
   -5.1850    1.2030    0.0000 C   0  0  0  0  0  0  0  0  0  0  0  0
   -6.6610    0.9390    0.0000 C   0  0  0  0  0  0  0  0  0  0  0  0
   -7.1710   -0.4720    0.0000 C   0  0  0  0  0  0  0  0  0  0  0  0
   -6.2040   -1.6190    0.0000 C   0  0  0  0  0  0  0  0  0  0  0  0
   -4.7270   -1.3550    0.0000 C   0  0  0  0  0  0  0  0  0  0  0  0
   -1.7740   -0.8270    0.0000 C   0  0  0  0  0  0  0  0  0  0  0  0
   -0.2980   -0.5630    0.0000 C   0  0  0  0  0  0  0  0  0  0  0  0
    2.6560   -0.0350    0.0000 C   0  0  0  0  0  0  0  0  0  0  0  0
    2.1460   -1.4460    0.0000 C   0  0  0  0  0  0  0  0  0  0  0  0
    3.1130   -2.5930    0.0000 C   0  0  0  0  0  0  0  0  0  0  0  0
    4.5890   -2.3290    0.0000 N   0  0  0  0  0  0  0  0  0  0  0  0
    5.0990   -0.9180    0.0000 C   0  0  0  0  0  0  0  0  0  0  0  0
    6.5760   -0.6540    0.0000 C   0  0  0  0  0  0  0  0  0  0  0  0
    7.0850    0.7570    0.0000 C   0  0  0  0  0  0  0  0  0  0  0  0
    6.1180    1.9030    0.0000 C   0  0  0  0  0  0  0  0  0  0  0  0
    4.6420    1.6390    0.0000 C   0  0  0  0  0  0  0  0  0  0  0  0
    4.1320    0.2290    0.0000 C   0  0  0  0  0  0  0  0  0  0  0  0
    2.6030   -4.0030    0.0000 O   0  0  0  0  0  0  0  0  0  0  0  0
   -1.2710    3.4030    0.0000 H   0  0  0  0  0  0  0  0  0  0  0  0
    0.5430    2.7480    0.0000 H   0  0  0  0  0  0  0  0  0  0  0  0
   -3.7090    1.9880    0.0000 H   0  0  0  0  0  0  0  0  0  0  0  0
   -2.2350    3.2310    0.0000 H   0  0  0  0  0  0  0  0  0  0  0  0
   -4.6750    2.6130    0.0000 H   0  0  0  0  0  0  0  0  0  0  0  0
   -7.6280    2.0860    0.0000 H   0  0  0  0  0  0  0  0  0  0  0  0
   -8.6470   -0.7360    0.0000 H   0  0  0  0  0  0  0  0  0  0  0  0
   -6.7140   -3.0300    0.0000 H   0  0  0  0  0  0  0  0  0  0  0  0
   -3.7610   -2.5020    0.0000 H   0  0  0  0  0  0  0  0  0  0  0  0
   -1.2580   -2.2350    0.0000 H   0  0  0  0  0  0  0  0  0  0  0  0
   -3.0710   -1.5800    0.0000 H   0  0  0  0  0  0  0  0  0  0  0  0
    1.1800   -0.8200    0.0000 H   0  0  0  0  0  0  0  0  0  0  0  0
   -0.2940   -2.0630    0.0000 H   0  0  0  0  0  0  0  0  0  0  0  0
    0.6690   -1.7100    0.0000 H   0  0  0  0  0  0  0  0  0  0  0  0
    7.5430   -1.8010    0.0000 H   0  0  0  0  0  0  0  0  0  0  0  0
    8.5620    1.0210    0.0000 H   0  0  0  0  0  0  0  0  0  0  0  0
    6.6280    3.3140    0.0000 H   0  0  0  0  0  0  0  0  0  0  0  0
    3.6750    2.7860    0.0000 H   0  0  0  0  0  0  0  0  0  0  0  0
    3.5700   -5.1500    0.0000 H   0  0  0  0  0  0  0  0  0  0  0  0
  1  2  2  0  0  0  0
  2  3  1  0  0  0  0
  2 15  1  0  0  0  0
  3  4  1  0  0  0  0
  3 14  1  0  0  0  0
  4  5  1  0  0  0  0
  4 26  1  0  0  0  0
  4 27  1  0  0  0  0
  5  6  1  0  0  0  0
  5 28  1  0  0  0  0
  5 29  1  0  0  0  0
  6  7  1  0  0  0  0
  6 13  1  0  0  0  0
  7  8  2  0  0  0  0
  7 12  1  0  0  0  0
  8  9  1  0  0  0  0
  8 30  1  0  0  0  0
  9 10  2  0  0  0  0
  9 31  1  0  0  0  0
 10 11  1  0  0  0  0
 10 32  1  0  0  0  0
 11 12  2  0  0  0  0
 11 33  1  0  0  0  0
 12 34  1  0  0  0  0
 13 14  1  0  0  0  0
 13 35  1  0  0  0  0
 13 36  1  0  0  0  0
 14 37  1  0  0  0  0
 14 38  1  0  0  0  0
 15 16  2  0  0  0  0
 15 24  1  0  0  0  0
 16 17  1  0  0  0  0
 16 39  1  0  0  0  0
 17 18  2  0  0  0  0
 17 25  1  0  0  0  0
 18 19  1  0  0  0  0
 19 20  2  0  0  0  0
 19 24  1  0  0  0  0
 20 21  1  0  0  0  0
 20 40  1  0  0  0  0
 21 22  2  0  0  0  0
 21 41  1  0  0  0  0
 22 23  1  0  0  0  0
 22 42  1  0  0  0  0
 23 24  2  0  0  0  0
 23 43  1  0  0  0  0
 25 44  1  0  0  0  0
M  END
$$$$
