2D_structures\o33_MMV1581378_2D.pdb
 OpenBabel02282409193D

 19 20  0  0  0  0  0  0  0  0999 V2000
   -1.0070   -2.5580    0.0000 I   0  0  0  0  0  0  0  0  0  0  0  0
   -0.8610   -1.0660    0.0000 C   0  0  0  0  0  0  0  0  0  0  0  0
   -2.0800   -0.1920    0.0000 C   0  0  0  0  0  0  0  0  0  0  0  0
   -3.4460   -0.8110    0.0000 N   0  0  0  0  0  0  0  0  0  0  0  0
   -1.9330    1.3010    0.0000 C   0  0  0  0  0  0  0  0  0  0  0  0
   -0.5670    1.9200    0.0000 C   0  0  0  0  0  0  0  0  0  0  0  0
    0.6530    1.0460    0.0000 C   0  0  0  0  0  0  0  0  0  0  0  0
    0.5060   -0.4460    0.0000 C   0  0  0  0  0  0  0  0  0  0  0  0
    1.7250   -1.3200    0.0000 C   0  0  0  0  0  0  0  0  0  0  0  0
    3.0910   -0.7010    0.0000 C   0  0  0  0  0  0  0  0  0  0  0  0
    3.2380    0.7920    0.0000 C   0  0  0  0  0  0  0  0  0  0  0  0
    2.0190    1.6660    0.0000 O   0  0  0  0  0  0  0  0  0  0  0  0
    4.6040    1.4110    0.0000 O   0  0  0  0  0  0  0  0  0  0  0  0
   -4.6650    0.0620    0.0000 H   0  0  0  0  0  0  0  0  0  0  0  0
   -3.5930   -2.3040    0.0000 H   0  0  0  0  0  0  0  0  0  0  0  0
   -3.1520    2.1740    0.0000 H   0  0  0  0  0  0  0  0  0  0  0  0
   -0.4200    3.4130    0.0000 H   0  0  0  0  0  0  0  0  0  0  0  0
    1.5780   -2.8130    0.0000 H   0  0  0  0  0  0  0  0  0  0  0  0
    4.3110   -1.5740    0.0000 H   0  0  0  0  0  0  0  0  0  0  0  0
  1  2  1  0  0  0  0
  2  3  2  0  0  0  0
  2  8  1  0  0  0  0
  3  4  1  0  0  0  0
  3  5  1  0  0  0  0
  4 14  1  0  0  0  0
  4 15  1  0  0  0  0
  5  6  2  0  0  0  0
  5 16  1  0  0  0  0
  6  7  1  0  0  0  0
  6 17  1  0  0  0  0
  7  8  2  0  0  0  0
  7 12  1  0  0  0  0
  8  9  1  0  0  0  0
  9 10  2  0  0  0  0
  9 18  1  0  0  0  0
 10 11  1  0  0  0  0
 10 19  1  0  0  0  0
 11 12  1  0  0  0  0
 11 13  2  0  0  0  0
M  END
$$$$
