2D_structures\o34_MMV1581031_2D.pdb
 OpenBabel02282409193D

 36 39  0  0  1  0  0  0  0  0999 V2000
   -1.3090   -2.8420    0.0000 Cl  0  0  0  0  0  0  0  0  0  0  0  0
   -2.4440   -1.8610    0.0000 C   0  0  0  0  0  0  0  0  0  0  0  0
   -2.1620   -0.3880    0.0000 C   0  0  0  0  0  0  0  0  0  0  0  0
   -3.2970    0.5930    0.0000 C   0  0  0  0  0  0  0  0  0  0  0  0
   -4.7140    0.1010    0.0000 C   0  0  0  0  0  0  0  0  0  0  0  0
   -4.9960   -1.3730    0.0000 C   0  0  0  0  0  0  0  0  0  0  0  0
   -3.8610   -2.3530    0.0000 C   0  0  0  0  0  0  0  0  0  0  0  0
   -3.3410    1.3890    0.0000 F   0  0  0  0  0  0  0  0  0  0  0  0
   -0.7450    0.1050    0.0000 C   0  0  1  0  0  0  0  0  0  0  0  0
   -1.4760    1.4150    0.0000 N   0  0  0  0  0  0  0  0  0  0  0  0
   -2.9390    1.7480    0.0000 N   0  0  0  0  0  0  0  0  0  0  0  0
   -3.0740    3.2420    0.0000 N   0  0  0  0  0  0  0  0  0  0  0  0
   -1.6950    3.8320    0.0000 N   0  0  0  0  0  0  0  0  0  0  0  0
   -0.7070    2.7030    0.0000 C   0  0  0  0  0  0  0  0  0  0  0  0
    0.7930    2.6810    0.0000 N   0  0  0  0  0  0  0  0  0  0  0  0
    1.5240    1.3710    0.0000 C   0  0  1  0  0  0  0  0  0  0  0  0
    0.7550    0.0830    0.0000 C   0  0  0  0  0  0  0  0  0  0  0  0
    2.6580    0.3900    0.0000 C   0  0  0  0  0  0  0  0  0  0  0  0
    2.3770   -1.0830    0.0000 C   0  0  0  0  0  0  0  0  0  0  0  0
    3.5110   -2.0640    0.0000 C   0  0  0  0  0  0  0  0  0  0  0  0
    4.9280   -1.5710    0.0000 C   0  0  0  0  0  0  0  0  0  0  0  0
    6.0630   -2.5520    0.0000 Cl  0  0  0  0  0  0  0  0  0  0  0  0
    5.2100   -0.0980    0.0000 C   0  0  0  0  0  0  0  0  0  0  0  0
    4.0750    0.8830    0.0000 C   0  0  0  0  0  0  0  0  0  0  0  0
   -5.8490    1.0810    0.0000 H   0  0  0  0  0  0  0  0  0  0  0  0
   -6.4120   -1.8650    0.0000 H   0  0  0  0  0  0  0  0  0  0  0  0
   -4.1430   -3.8270    0.0000 H   0  0  0  0  0  0  0  0  0  0  0  0
   -0.5060   -1.3760    0.0000 H   0  0  0  0  0  0  0  0  0  0  0  0
    1.5610    3.9690    0.0000 H   0  0  0  0  0  0  0  0  0  0  0  0
    2.6870    2.3180    0.0000 H   0  0  0  0  0  0  0  0  0  0  0  0
    0.2950   -1.3450    0.0000 H   0  0  0  0  0  0  0  0  0  0  0  0
    1.9860   -0.7740    0.0000 H   0  0  0  0  0  0  0  0  0  0  0  0
    1.0300   -1.7450    0.0000 H   0  0  0  0  0  0  0  0  0  0  0  0
    3.2300   -3.5370    0.0000 H   0  0  0  0  0  0  0  0  0  0  0  0
    6.6270    0.3940    0.0000 H   0  0  0  0  0  0  0  0  0  0  0  0
    4.3570    2.3560    0.0000 H   0  0  0  0  0  0  0  0  0  0  0  0
  1  2  1  0  0  0  0
  2  3  2  0  0  0  0
  2  7  1  0  0  0  0
  3  4  1  0  0  0  0
  3  9  1  0  0  0  0
  4  5  2  0  0  0  0
  4  8  1  0  0  0  0
  5  6  1  0  0  0  0
  5 25  1  0  0  0  0
  6  7  2  0  0  0  0
  6 26  1  0  0  0  0
  7 27  1  0  0  0  0
  9 10  1  0  0  0  0
  9 17  1  0  0  0  0
  9 28  1  6  0  0  0
 10 11  1  0  0  0  0
 10 14  1  0  0  0  0
 11 12  2  0  0  0  0
 12 13  1  0  0  0  0
 13 14  2  0  0  0  0
 14 15  1  0  0  0  0
 15 16  1  0  0  0  0
 15 29  1  0  0  0  0
 16 17  1  0  0  0  0
 16 18  1  0  0  0  0
 16 30  1  1  0  0  0
 17 31  1  0  0  0  0
 17 32  1  0  0  0  0
 18 19  2  0  0  0  0
 18 24  1  0  0  0  0
 19 20  1  0  0  0  0
 19 33  1  0  0  0  0
 20 21  2  0  0  0  0
 20 34  1  0  0  0  0
 21 22  1  0  0  0  0
 21 23  1  0  0  0  0
 23 24  2  0  0  0  0
 23 35  1  0  0  0  0
 24 36  1  0  0  0  0
M  END
$$$$
