2D_structures\o36_MMV001761_2D.pdb
 OpenBabel02282409193D

 31 32  0  0  0  0  0  0  0  0999 V2000
   -2.5910    0.7690    0.0000 O   0  0  0  0  0  0  0  0  0  0  0  0
   -2.9310   -0.6920    0.0000 C   0  0  0  0  0  0  0  0  0  0  0  0
   -1.4700   -1.0320    0.0000 C   0  0  0  0  0  0  0  0  0  0  0  0
   -0.0090   -1.3710    0.0000 O   0  0  0  0  0  0  0  0  0  0  0  0
   -4.3920   -0.3520    0.0000 C   0  0  0  0  0  0  0  0  0  0  0  0
   -5.8530   -0.0120    0.0000 O   0  0  0  0  0  0  0  0  0  0  0  0
   -1.1560    1.2060    0.0000 C   0  0  0  0  0  0  0  0  0  0  0  0
    0.2790    1.6420    0.0000 N   0  0  0  0  0  0  0  0  0  0  0  0
    1.4750    0.7370    0.0000 C   0  0  0  0  0  0  0  0  0  0  0  0
    1.6040   -0.7570    0.0000 N   0  0  0  0  0  4  0  0  0  0  0  0
    2.9620   -1.3930    0.0000 C   0  0  0  0  0  0  0  0  0  0  0  0
    4.1920   -0.5350    0.0000 N   0  0  0  0  0  0  0  0  0  0  0  0
    4.0640    0.9600    0.0000 C   0  0  0  0  0  0  0  0  0  0  0  0
    2.7060    1.5960    0.0000 C   0  0  0  0  0  0  0  0  0  0  0  0
    2.2690    3.0310    0.0000 N   0  0  0  0  0  0  0  0  0  0  0  0
    0.7690    3.0590    0.0000 C   0  0  0  0  0  0  0  0  0  0  0  0
    5.2940    1.8180    0.0000 O   0  0  0  0  0  0  0  0  0  0  0  0
    3.0910   -2.8880    0.0000 N   0  0  0  0  0  0  0  0  0  0  0  0
   -3.2710   -2.1530    0.0000 H   0  0  0  0  0  0  0  0  0  0  0  0
   -1.8100   -2.4930    0.0000 H   0  0  0  0  0  0  0  0  0  0  0  0
   -1.0230   -0.3710    0.0000 H   0  0  0  0  0  0  0  0  0  0  0  0
    0.4270   -2.8060    0.0000 H   0  0  0  0  0  0  0  0  0  0  0  0
   -4.7320   -1.8130    0.0000 H   0  0  0  0  0  0  0  0  0  0  0  0
   -4.0520    1.1090    0.0000 H   0  0  0  0  0  0  0  0  0  0  0  0
   -6.2890    1.4230    0.0000 H   0  0  0  0  0  0  0  0  0  0  0  0
   -1.5930    2.6410    0.0000 H   0  0  0  0  0  0  0  0  0  0  0  0
   -0.8330    0.4770    0.0000 H   0  0  0  0  0  0  0  0  0  0  0  0
   -0.0890    4.2890    0.0000 H   0  0  0  0  0  0  0  0  0  0  0  0
    6.6530    1.1820    0.0000 H   0  0  0  0  0  0  0  0  0  0  0  0
    1.8610   -3.7460    0.0000 H   0  0  0  0  0  0  0  0  0  0  0  0
    4.4490   -3.5240    0.0000 H   0  0  0  0  0  0  0  0  0  0  0  0
  1  2  1  0  0  0  0
  1  7  1  0  0  0  0
  2  3  1  0  0  0  0
  2  5  1  0  0  0  0
  2 19  1  0  0  0  0
  3  4  1  0  0  0  0
  3 20  1  0  0  0  0
  3 21  1  0  0  0  0
  4 22  1  0  0  0  0
  5  6  1  0  0  0  0
  5 23  1  0  0  0  0
  5 24  1  0  0  0  0
  6 25  1  0  0  0  0
  7  8  1  0  0  0  0
  7 26  1  0  0  0  0
  7 27  1  0  0  0  0
  8  9  1  0  0  0  0
  8 16  1  0  0  0  0
  9 10  2  0  0  0  0
  9 14  1  0  0  0  0
 10 11  2  0  0  0  0
 11 12  1  0  0  0  0
 11 18  1  0  0  0  0
 12 13  2  0  0  0  0
 13 14  2  0  0  0  0
 13 17  1  0  0  0  0
 14 15  1  0  0  0  0
 15 16  2  0  0  0  0
 16 28  1  0  0  0  0
 17 29  1  0  0  0  0
 18 30  1  0  0  0  0
 18 31  1  0  0  0  0
M  END
$$$$
