2D_structures\o37_MMV002015_2D.pdb
 OpenBabel02282409193D

 43 46  0  0  0  0  0  0  0  0999 V2000
   -0.1880    6.7320    0.0000 Cl  0  0  0  0  0  0  0  0  0  0  0  0
    0.1440    5.2690    0.0000 C   0  0  0  0  0  0  0  0  0  0  0  0
    1.5760    4.8250    0.0000 C   0  0  0  0  0  0  0  0  0  0  0  0
    1.9080    3.3620    0.0000 C   0  0  0  0  0  0  0  0  0  0  0  0
    0.8070    2.3430    0.0000 C   0  0  0  0  0  0  0  0  0  0  0  0
    1.1390    0.8800    0.0000 C   0  0  0  0  0  0  0  0  0  0  0  0
    1.4700   -0.5820    0.0000 N   0  0  0  0  0  0  0  0  0  0  0  0
    2.8490   -1.1740    0.0000 C   0  0  0  0  0  0  0  0  0  0  0  0
    2.7120   -2.6680    0.0000 C   0  0  0  0  0  0  0  0  0  0  0  0
    3.9380   -3.5330    0.0000 C   0  0  0  0  0  0  0  0  0  0  0  0
    5.3000   -2.9040    0.0000 C   0  0  0  0  0  0  0  0  0  0  0  0
    5.4360   -1.4100    0.0000 C   0  0  0  0  0  0  0  0  0  0  0  0
    4.2110   -0.5450    0.0000 C   0  0  0  0  0  0  0  0  0  0  0  0
    1.2500   -2.9990    0.0000 N   0  0  0  0  0  0  0  0  0  0  0  0
    0.4820   -1.7110    0.0000 C   0  0  0  0  0  0  0  0  0  0  0  0
   -1.0120   -1.5740    0.0000 C   0  0  0  0  0  0  0  0  0  0  0  0
   -2.5060   -1.4380    0.0000 N   0  0  0  0  0  0  0  0  0  0  0  0
   -3.2730   -0.1490    0.0000 C   0  0  0  0  0  0  0  0  0  0  0  0
   -4.7360   -0.4810    0.0000 C   0  0  0  0  0  0  0  0  0  0  0  0
   -4.8730   -1.9740    0.0000 C   0  0  0  0  0  0  0  0  0  0  0  0
   -3.4940   -2.5660    0.0000 C   0  0  0  0  0  0  0  0  0  0  0  0
   -0.6260    2.7870    0.0000 C   0  0  0  0  0  0  0  0  0  0  0  0
   -0.9570    4.2500    0.0000 C   0  0  0  0  0  0  0  0  0  0  0  0
    2.6770    5.8440    0.0000 H   0  0  0  0  0  0  0  0  0  0  0  0
    3.3410    2.9180    0.0000 H   0  0  0  0  0  0  0  0  0  0  0  0
    2.6020    1.2120    0.0000 H   0  0  0  0  0  0  0  0  0  0  0  0
   -0.3540    0.7290    0.0000 H   0  0  0  0  0  0  0  0  0  0  0  0
    3.8010   -5.0270    0.0000 H   0  0  0  0  0  0  0  0  0  0  0  0
    6.5250   -3.7690    0.0000 H   0  0  0  0  0  0  0  0  0  0  0  0
    6.7980   -0.7820    0.0000 H   0  0  0  0  0  0  0  0  0  0  0  0
    4.3470    0.9480    0.0000 H   0  0  0  0  0  0  0  0  0  0  0  0
   -1.1480   -3.0680    0.0000 H   0  0  0  0  0  0  0  0  0  0  0  0
   -1.0580   -0.0750    0.0000 H   0  0  0  0  0  0  0  0  0  0  0  0
   -1.9110    0.4800    0.0000 H   0  0  0  0  0  0  0  0  0  0  0  0
   -3.7560    1.2710    0.0000 H   0  0  0  0  0  0  0  0  0  0  0  0
   -4.9130    1.0090    0.0000 H   0  0  0  0  0  0  0  0  0  0  0  0
   -6.2360   -0.5010    0.0000 H   0  0  0  0  0  0  0  0  0  0  0  0
   -6.3440   -1.6820    0.0000 H   0  0  0  0  0  0  0  0  0  0  0  0
   -5.3170   -3.4070    0.0000 H   0  0  0  0  0  0  0  0  0  0  0  0
   -4.2260   -3.8750    0.0000 H   0  0  0  0  0  0  0  0  0  0  0  0
   -2.2690   -3.4310    0.0000 H   0  0  0  0  0  0  0  0  0  0  0  0
   -1.7270    1.7690    0.0000 H   0  0  0  0  0  0  0  0  0  0  0  0
   -2.3900    4.6940    0.0000 H   0  0  0  0  0  0  0  0  0  0  0  0
  1  2  1  0  0  0  0
  2  3  2  0  0  0  0
  2 23  1  0  0  0  0
  3  4  1  0  0  0  0
  3 24  1  0  0  0  0
  4  5  2  0  0  0  0
  4 25  1  0  0  0  0
  5  6  1  0  0  0  0
  5 22  1  0  0  0  0
  6  7  1  0  0  0  0
  6 26  1  0  0  0  0
  6 27  1  0  0  0  0
  7  8  1  0  0  0  0
  7 15  1  0  0  0  0
  8  9  2  0  0  0  0
  8 13  2  0  0  0  0
  9 10  2  0  0  0  0
  9 14  1  0  0  0  0
 10 11  2  0  0  0  0
 10 28  1  0  0  0  0
 11 12  2  0  0  0  0
 11 29  1  0  0  0  0
 12 13  2  0  0  0  0
 12 30  1  0  0  0  0
 13 31  1  0  0  0  0
 14 15  2  0  0  0  0
 15 16  1  0  0  0  0
 16 17  1  0  0  0  0
 16 32  1  0  0  0  0
 16 33  1  0  0  0  0
 17 18  1  0  0  0  0
 17 21  1  0  0  0  0
 18 19  2  0  0  0  0
 18 34  1  0  0  0  0
 18 35  1  0  0  0  0
 19 20  1  0  0  0  0
 19 36  1  0  0  0  0
 19 37  1  0  0  0  0
 20 21  2  0  0  0  0
 20 38  1  0  0  0  0
 20 39  1  0  0  0  0
 21 40  1  0  0  0  0
 21 41  1  0  0  0  0
 22 23  2  0  0  0  0
 22 42  1  0  0  0  0
 23 43  1  0  0  0  0
M  END
$$$$
