2D_structures\o3_MMV1580798_2D.pdb
 OpenBabel02282409193D

 59 62  0  0  1  0  0  0  0  0999 V2000
    1.9910   -1.3260    0.0000 O   0  0  0  0  0  0  0  0  0  0  0  0
    2.4870    0.0900    0.0000 C   0  0  0  0  0  0  0  0  0  0  0  0
    3.9610    0.3680    0.0000 N   0  0  0  0  0  0  0  0  0  0  0  0
    4.9390   -0.7690    0.0000 C   0  0  0  0  0  0  0  0  0  0  0  0
    4.4430   -2.1850    0.0000 C   0  0  0  0  0  0  0  0  0  0  0  0
    5.4210   -3.3220    0.0000 C   0  0  0  0  0  0  0  0  0  0  0  0
    6.8950   -3.0430    0.0000 C   0  0  0  0  0  0  0  0  0  0  0  0
    7.3910   -1.6280    0.0000 C   0  0  0  0  0  0  0  0  0  0  0  0
    6.4130   -0.4900    0.0000 C   0  0  0  0  0  0  0  0  0  0  0  0
    4.4570    1.7840    0.0000 C   0  0  0  0  0  0  0  0  0  0  0  0
    1.5090    1.2270    0.0000 C   0  0  1  0  0  0  0  0  0  0  0  0
    0.3720    0.2490    0.0000 N   0  0  0  0  0  0  0  0  0  0  0  0
   -1.0440    0.7450    0.0000 C   0  0  0  0  0  0  0  0  0  0  0  0
   -1.2080    1.6150    0.0000 O   0  0  0  0  0  0  0  0  0  0  0  0
   -2.1810   -0.2330    0.0000 C   0  0  0  0  0  0  0  0  0  0  0  0
   -3.3180   -1.2110    0.0000 C   0  0  0  0  0  0  0  0  0  0  0  0
   -4.7780   -0.8660    0.0000 C   0  0  0  0  0  0  0  0  0  0  0  0
   -5.5570   -2.1480    0.0000 N   0  0  0  0  0  0  0  0  0  0  0  0
   -4.5790   -3.2850    0.0000 C   0  0  0  0  0  0  0  0  0  0  0  0
   -3.1960   -2.7060    0.0000 C   0  0  0  0  0  0  0  0  0  0  0  0
   -2.0020   -3.6150    0.0000 C   0  0  0  0  0  0  0  0  0  0  0  0
   -2.1930   -5.1030    0.0000 C   0  0  0  0  0  0  0  0  0  0  0  0
   -3.5770   -5.6820    0.0000 C   0  0  0  0  0  0  0  0  0  0  0  0
   -4.7700   -4.7730    0.0000 C   0  0  0  0  0  0  0  0  0  0  0  0
   -5.3570    0.5180    0.0000 C   0  0  0  0  0  0  0  0  0  0  0  0
    0.5310    2.3640    0.0000 C   0  0  0  0  0  0  0  0  0  0  0  0
   -0.4470    3.5020    0.0000 C   0  0  0  0  0  0  0  0  0  0  0  0
    0.0490    4.9170    0.0000 C   0  0  0  0  0  0  0  0  0  0  0  0
   -0.9290    6.0550    0.0000 C   0  0  0  0  0  0  0  0  0  0  0  0
   -2.4030    5.7760    0.0000 C   0  0  0  0  0  0  0  0  0  0  0  0
   -2.8990    4.3610    0.0000 C   0  0  0  0  0  0  0  0  0  0  0  0
   -1.9210    3.2230    0.0000 C   0  0  0  0  0  0  0  0  0  0  0  0
    2.9690   -2.4630    0.0000 H   0  0  0  0  0  0  0  0  0  0  0  0
    4.9260   -4.7380    0.0000 H   0  0  0  0  0  0  0  0  0  0  0  0
    7.8730   -4.1810    0.0000 H   0  0  0  0  0  0  0  0  0  0  0  0
    8.8650   -1.3490    0.0000 H   0  0  0  0  0  0  0  0  0  0  0  0
    6.9090    0.9250    0.0000 H   0  0  0  0  0  0  0  0  0  0  0  0
    4.9530    3.2000    0.0000 H   0  0  0  0  0  0  0  0  0  0  0  0
    5.8730    1.2880    0.0000 H   0  0  0  0  0  0  0  0  0  0  0  0
    3.3680    2.3220    0.0000 H   0  0  0  0  0  0  0  0  0  0  0  0
    2.3270    2.1260    0.0000 H   0  0  0  0  0  0  0  0  0  0  0  0
    0.6500   -1.2250    0.0000 H   0  0  0  0  0  0  0  0  0  0  0  0
   -1.2030   -1.3700    0.0000 H   0  0  0  0  0  0  0  0  0  0  0  0
   -3.0130    1.0150    0.0000 H   0  0  0  0  0  0  0  0  0  0  0  0
   -7.0520   -2.2710    0.0000 H   0  0  0  0  0  0  0  0  0  0  0  0
   -0.6190   -3.0360    0.0000 H   0  0  0  0  0  0  0  0  0  0  0  0
   -1.0000   -6.0120    0.0000 H   0  0  0  0  0  0  0  0  0  0  0  0
   -3.7680   -7.1700    0.0000 H   0  0  0  0  0  0  0  0  0  0  0  0
   -6.1540   -5.3520    0.0000 H   0  0  0  0  0  0  0  0  0  0  0  0
   -5.9360    1.9020    0.0000 H   0  0  0  0  0  0  0  0  0  0  0  0
   -6.7410   -0.0610    0.0000 H   0  0  0  0  0  0  0  0  0  0  0  0
   -4.0540    1.2610    0.0000 H   0  0  0  0  0  0  0  0  0  0  0  0
   -0.2600    1.9670    0.0000 H   0  0  0  0  0  0  0  0  0  0  0  0
    1.6680    3.3430    0.0000 H   0  0  0  0  0  0  0  0  0  0  0  0
    1.5230    5.1960    0.0000 H   0  0  0  0  0  0  0  0  0  0  0  0
   -0.4330    7.4700    0.0000 H   0  0  0  0  0  0  0  0  0  0  0  0
   -3.3810    6.9130    0.0000 H   0  0  0  0  0  0  0  0  0  0  0  0
   -4.3730    4.0820    0.0000 H   0  0  0  0  0  0  0  0  0  0  0  0
   -2.4170    1.8080    0.0000 H   0  0  0  0  0  0  0  0  0  0  0  0
  1  2  2  0  0  0  0
  2  3  1  0  0  0  0
  2 11  1  0  0  0  0
  3  4  1  0  0  0  0
  3 10  1  0  0  0  0
  4  5  2  0  0  0  0
  4  9  1  0  0  0  0
  5  6  1  0  0  0  0
  5 33  1  0  0  0  0
  6  7  2  0  0  0  0
  6 34  1  0  0  0  0
  7  8  1  0  0  0  0
  7 35  1  0  0  0  0
  8  9  2  0  0  0  0
  8 36  1  0  0  0  0
  9 37  1  0  0  0  0
 10 38  1  0  0  0  0
 10 39  1  0  0  0  0
 10 40  1  0  0  0  0
 11 12  1  0  0  0  0
 11 26  1  0  0  0  0
 11 41  1  6  0  0  0
 12 13  1  0  0  0  0
 12 42  1  0  0  0  0
 13 14  2  0  0  0  0
 13 15  1  0  0  0  0
 15 16  1  0  0  0  0
 15 43  1  0  0  0  0
 15 44  1  0  0  0  0
 16 17  2  0  0  0  0
 16 20  1  0  0  0  0
 17 18  1  0  0  0  0
 17 25  1  0  0  0  0
 18 19  1  0  0  0  0
 18 45  1  0  0  0  0
 19 20  2  0  0  0  0
 19 24  1  0  0  0  0
 20 21  1  0  0  0  0
 21 22  2  0  0  0  0
 21 46  1  0  0  0  0
 22 23  1  0  0  0  0
 22 47  1  0  0  0  0
 23 24  2  0  0  0  0
 23 48  1  0  0  0  0
 24 49  1  0  0  0  0
 25 50  1  0  0  0  0
 25 51  1  0  0  0  0
 25 52  1  0  0  0  0
 26 27  1  0  0  0  0
 26 53  1  0  0  0  0
 26 54  1  0  0  0  0
 27 28  2  0  0  0  0
 27 32  1  0  0  0  0
 28 29  1  0  0  0  0
 28 55  1  0  0  0  0
 29 30  2  0  0  0  0
 29 56  1  0  0  0  0
 30 31  1  0  0  0  0
 30 57  1  0  0  0  0
 31 32  2  0  0  0  0
 31 58  1  0  0  0  0
 32 59  1  0  0  0  0
M  END
$$$$
