2D_structures\o40_MMV001961_2D.pdb
 OpenBabel02282409193D

 27 28  0  0  0  0  0  0  0  0999 V2000
   -2.4530    1.8400    0.0000 O   0  0  0  0  0  0  0  0  0  0  0  0
   -0.9530    1.8180    0.0000 C   0  0  0  0  0  0  0  0  0  0  0  0
    0.5470    1.7950    0.0000 N   0  0  0  0  0  0  0  0  0  0  0  0
    1.4100    0.5690    0.0000 C   0  0  0  0  0  0  0  0  0  0  0  0
    1.0770   -0.8930    0.0000 N   0  0  0  0  0  4  0  0  0  0  0  0
    2.1770   -1.9140    0.0000 C   0  0  0  0  0  0  0  0  0  0  0  0
    3.6100   -1.4710    0.0000 N   0  0  0  0  0  0  0  0  0  0  0  0
    3.9430   -0.0090    0.0000 C   0  0  0  0  0  0  0  0  0  0  0  0
    2.8440    1.0110    0.0000 C   0  0  0  0  0  0  0  0  0  0  0  0
    2.8660    2.5110    0.0000 N   0  0  0  0  0  0  0  0  0  0  0  0
    1.4460    2.9960    0.0000 C   0  0  0  0  0  0  0  0  0  0  0  0
    5.3770    0.4340    0.0000 O   0  0  0  0  0  0  0  0  0  0  0  0
    1.8430   -3.3760    0.0000 N   0  0  0  0  0  0  0  0  0  0  0  0
   -3.2220    0.5520    0.0000 C   0  0  0  0  0  0  0  0  0  0  0  0
   -3.9910   -0.7360    0.0000 C   0  0  0  0  0  0  0  0  0  0  0  0
   -4.7600   -2.0230    0.0000 O   0  0  0  0  0  0  0  0  0  0  0  0
   -0.9310    3.3180    0.0000 H   0  0  0  0  0  0  0  0  0  0  0  0
   -0.9750    0.3180    0.0000 H   0  0  0  0  0  0  0  0  0  0  0  0
    1.0040    4.4290    0.0000 H   0  0  0  0  0  0  0  0  0  0  0  0
    6.4760   -0.5870    0.0000 H   0  0  0  0  0  0  0  0  0  0  0  0
    0.4100   -3.8180    0.0000 H   0  0  0  0  0  0  0  0  0  0  0  0
    2.9430   -4.3960    0.0000 H   0  0  0  0  0  0  0  0  0  0  0  0
   -1.9340   -0.2170    0.0000 H   0  0  0  0  0  0  0  0  0  0  0  0
   -4.5100    1.3210    0.0000 H   0  0  0  0  0  0  0  0  0  0  0  0
   -2.7030   -1.5050    0.0000 H   0  0  0  0  0  0  0  0  0  0  0  0
   -5.2790    0.0340    0.0000 H   0  0  0  0  0  0  0  0  0  0  0  0
   -6.2600   -2.0010    0.0000 H   0  0  0  0  0  0  0  0  0  0  0  0
  1  2  1  0  0  0  0
  1 14  1  0  0  0  0
  2  3  1  0  0  0  0
  2 17  1  0  0  0  0
  2 18  1  0  0  0  0
  3  4  1  0  0  0  0
  3 11  1  0  0  0  0
  4  5  2  0  0  0  0
  4  9  1  0  0  0  0
  5  6  2  0  0  0  0
  6  7  1  0  0  0  0
  6 13  1  0  0  0  0
  7  8  2  0  0  0  0
  8  9  2  0  0  0  0
  8 12  1  0  0  0  0
  9 10  1  0  0  0  0
 10 11  2  0  0  0  0
 11 19  1  0  0  0  0
 12 20  1  0  0  0  0
 13 21  1  0  0  0  0
 13 22  1  0  0  0  0
 14 15  1  0  0  0  0
 14 23  1  0  0  0  0
 14 24  1  0  0  0  0
 15 16  1  0  0  0  0
 15 25  1  0  0  0  0
 15 26  1  0  0  0  0
 16 27  1  0  0  0  0
M  END
$$$$
