2D_structures\o41_MMV003738_2D.pdb
 OpenBabel02282409193D

 41 43  0  0  1  0  0  0  0  0999 V2000
   -6.6280    1.6190    0.0000 O   0  0  0  0  0  0  0  0  0  0  0  0
   -5.6990    0.4410    0.0000 C   0  0  0  0  0  0  0  0  0  0  0  0
   -6.1060   -1.0030    0.0000 N   0  0  0  0  0  0  0  0  0  0  0  0
   -4.8590   -1.8360    0.0000 C   0  0  0  0  0  0  0  0  0  0  0  0
   -3.6810   -0.9070    0.0000 C   0  0  1  0  0  0  0  0  0  0  0  0
   -4.2000    0.5000    0.0000 C   0  0  0  0  0  0  0  0  0  0  0  0
   -2.3360   -0.2440    0.0000 C   0  0  0  0  0  0  0  0  0  0  0  0
   -1.0880   -1.0770    0.0000 C   0  0  0  0  0  0  0  0  0  0  0  0
    0.2570   -0.4130    0.0000 C   0  0  0  0  0  0  0  0  0  0  0  0
    0.3550    1.0830    0.0000 C   0  0  0  0  0  0  0  0  0  0  0  0
    1.7000    1.7470    0.0000 O   0  0  0  0  0  0  0  0  0  0  0  0
    1.7980    3.2440    0.0000 C   0  0  0  0  0  0  0  0  0  0  0  0
   -0.8930    1.9170    0.0000 C   0  0  0  0  0  0  0  0  0  0  0  0
   -2.2380    1.2530    0.0000 C   0  0  0  0  0  0  0  0  0  0  0  0
    1.5040   -1.2470    0.0000 O   0  0  0  0  0  0  0  0  0  0  0  0
    2.8490   -0.5830    0.0000 C   0  0  0  0  0  0  0  0  0  0  0  0
    4.0270    0.3460    0.0000 C   0  0  0  0  0  0  0  0  0  0  0  0
    5.2750   -0.4880    0.0000 C   0  0  0  0  0  0  0  0  0  0  0  0
    4.8670   -1.9310    0.0000 C   0  0  0  0  0  0  0  0  0  0  0  0
    3.3690   -1.9900    0.0000 C   0  0  0  0  0  0  0  0  0  0  0  0
   -7.5130   -1.5220    0.0000 H   0  0  0  0  0  0  0  0  0  0  0  0
   -3.8120   -2.9100    0.0000 H   0  0  0  0  0  0  0  0  0  0  0  0
   -5.8180   -2.9890    0.0000 H   0  0  0  0  0  0  0  0  0  0  0  0
   -2.8800   -2.1760    0.0000 H   0  0  0  0  0  0  0  0  0  0  0  0
   -4.4160    1.9840    0.0000 H   0  0  0  0  0  0  0  0  0  0  0  0
   -3.1300    1.0750    0.0000 H   0  0  0  0  0  0  0  0  0  0  0  0
   -1.1860   -2.5740    0.0000 H   0  0  0  0  0  0  0  0  0  0  0  0
    1.8960    4.7410    0.0000 H   0  0  0  0  0  0  0  0  0  0  0  0
    3.2950    3.1460    0.0000 H   0  0  0  0  0  0  0  0  0  0  0  0
    0.3010    3.3420    0.0000 H   0  0  0  0  0  0  0  0  0  0  0  0
   -0.7950    3.4130    0.0000 H   0  0  0  0  0  0  0  0  0  0  0  0
   -3.4850    2.0860    0.0000 H   0  0  0  0  0  0  0  0  0  0  0  0
    2.0490    0.6850    0.0000 H   0  0  0  0  0  0  0  0  0  0  0  0
    2.9800    1.4200    0.0000 H   0  0  0  0  0  0  0  0  0  0  0  0
    4.9860    1.4990    0.0000 H   0  0  0  0  0  0  0  0  0  0  0  0
    5.9730    0.8400    0.0000 H   0  0  0  0  0  0  0  0  0  0  0  0
    6.6680   -1.0430    0.0000 H   0  0  0  0  0  0  0  0  0  0  0  0
    6.3460   -2.1850    0.0000 H   0  0  0  0  0  0  0  0  0  0  0  0
    4.7700   -3.4280    0.0000 H   0  0  0  0  0  0  0  0  0  0  0  0
    3.5840   -3.4750    0.0000 H   0  0  0  0  0  0  0  0  0  0  0  0
    1.9150   -2.3600    0.0000 H   0  0  0  0  0  0  0  0  0  0  0  0
  1  2  2  0  0  0  0
  2  3  1  0  0  0  0
  2  6  1  0  0  0  0
  3  4  1  0  0  0  0
  3 21  1  0  0  0  0
  4  5  1  0  0  0  0
  4 22  1  0  0  0  0
  4 23  1  0  0  0  0
  5  6  1  0  0  0  0
  5  7  1  0  0  0  0
  5 24  1  6  0  0  0
  6 25  1  0  0  0  0
  6 26  1  0  0  0  0
  7  8  2  0  0  0  0
  7 14  1  0  0  0  0
  8  9  1  0  0  0  0
  8 27  1  0  0  0  0
  9 10  2  0  0  0  0
  9 15  1  0  0  0  0
 10 11  1  0  0  0  0
 10 13  1  0  0  0  0
 11 12  1  0  0  0  0
 12 28  1  0  0  0  0
 12 29  1  0  0  0  0
 12 30  1  0  0  0  0
 13 14  2  0  0  0  0
 13 31  1  0  0  0  0
 14 32  1  0  0  0  0
 15 16  1  0  0  0  0
 16 17  2  0  0  0  0
 16 20  1  0  0  0  0
 16 33  1  0  0  0  0
 17 18  1  0  0  0  0
 17 34  1  0  0  0  0
 17 35  1  0  0  0  0
 18 19  2  0  0  0  0
 18 36  1  0  0  0  0
 18 37  1  0  0  0  0
 19 20  1  0  0  0  0
 19 38  1  0  0  0  0
 19 39  1  0  0  0  0
 20 40  1  0  0  0  0
 20 41  1  0  0  0  0
M  END
$$$$
