2D_structures\o44_MMV1580489_2D.pdb
 OpenBabel02282409193D

 73 77  0  0  1  0  0  0  0  0999 V2000
   -2.5830   -3.3920    0.0000 C   0  0  0  0  0  0  0  0  0  0  0  0
   -1.8600   -2.0780    0.0000 C   0  0  0  0  0  0  0  0  0  0  0  0
   -1.1380   -0.7630    0.0000 N   0  3  1  0  0  0  0  0  0  0  0  0
    0.0310   -1.7030    0.0000 C   0  0  0  0  0  0  0  0  0  0  0  0
    1.4300   -1.1600    0.0000 C   0  0  0  0  0  0  0  0  0  0  0  0
    1.6590    0.3220    0.0000 C   0  0  1  0  0  0  0  0  0  0  0  0
    0.4900    1.2620    0.0000 C   0  0  0  0  0  0  0  0  0  0  0  0
   -0.9090    0.7190    0.0000 C   0  0  0  0  0  0  0  0  0  0  0  0
    2.3810    1.6370    0.0000 N   0  0  0  0  0  0  0  0  0  0  0  0
    3.8810    1.6690    0.0000 C   0  0  0  0  0  0  0  0  0  0  0  0
    4.4380    3.0620    0.0000 O   0  0  0  0  0  0  0  0  0  0  0  0
    4.6580    0.3860    0.0000 C   0  0  0  0  0  0  0  0  0  0  0  0
    4.9500   -1.0860    0.0000 C   0  0  0  0  0  0  0  0  0  0  0  0
    6.3700   -1.5690    0.0000 C   0  0  0  0  0  0  0  0  0  0  0  0
    7.4980   -0.5810    0.0000 O   0  0  0  0  0  0  0  0  0  0  0  0
    7.2070    0.8910    0.0000 C   0  0  0  0  0  0  0  0  0  0  0  0
    5.7870    1.3740    0.0000 C   0  0  0  0  0  0  0  0  0  0  0  0
    5.4950    2.8450    0.0000 C   0  0  0  0  0  0  0  0  0  0  0  0
    6.6240    3.8340    0.0000 C   0  0  0  0  0  0  0  0  0  0  0  0
    6.3320    5.3050    0.0000 Cl  0  0  0  0  0  0  0  0  0  0  0  0
    8.0440    3.3500    0.0000 C   0  0  0  0  0  0  0  0  0  0  0  0
    8.3350    1.8790    0.0000 C   0  0  0  0  0  0  0  0  0  0  0  0
    6.6620   -3.0400    0.0000 C   0  0  0  0  0  0  0  0  0  0  0  0
    5.5330   -4.0280    0.0000 C   0  0  0  0  0  0  0  0  0  0  0  0
    4.1130   -3.5450    0.0000 C   0  0  0  0  0  0  0  0  0  0  0  0
    3.8220   -2.0740    0.0000 C   0  0  0  0  0  0  0  0  0  0  0  0
    2.9850   -4.5330    0.0000 Cl  0  0  0  0  0  0  0  0  0  0  0  0
   -2.5580   -0.2800    0.0000 C   0  0  0  0  0  0  0  0  0  0  0  0
   -3.9780    0.2030    0.0000 C   0  0  0  0  0  0  0  0  0  0  0  0
   -4.0750    1.7000    0.0000 C   0  0  0  0  0  0  0  0  0  0  0  0
   -5.2020    2.6900    0.0000 C   0  0  0  0  0  0  0  0  0  0  0  0
   -6.6990    2.5930    0.0000 C   0  0  0  0  0  0  0  0  0  0  0  0
   -7.6890    1.4660    0.0000 C   0  0  0  0  0  0  0  0  0  0  0  0
   -7.5920   -0.0310    0.0000 C   0  0  0  0  0  0  0  0  0  0  0  0
   -6.4650   -1.0210    0.0000 C   0  0  0  0  0  0  0  0  0  0  0  0
   -4.9680   -0.9240    0.0000 C   0  0  0  0  0  0  0  0  0  0  0  0
   -3.8970   -2.6700    0.0000 H   0  0  0  0  0  0  0  0  0  0  0  0
   -1.2680   -4.1150    0.0000 H   0  0  0  0  0  0  0  0  0  0  0  0
   -3.3050   -4.7070    0.0000 H   0  0  0  0  0  0  0  0  0  0  0  0
   -3.3100   -1.6950    0.0000 H   0  0  0  0  0  0  0  0  0  0  0  0
   -1.2140   -2.5440    0.0000 H   0  0  0  0  0  0  0  0  0  0  0  0
    0.8090   -2.9860    0.0000 H   0  0  0  0  0  0  0  0  0  0  0  0
   -0.5000   -2.2970    0.0000 H   0  0  0  0  0  0  0  0  0  0  0  0
    2.9220   -1.3110    0.0000 H   0  0  0  0  0  0  0  0  0  0  0  0
    1.7210   -2.6310    0.0000 H   0  0  0  0  0  0  0  0  0  0  0  0
    3.0100   -0.3300    0.0000 H   0  0  0  0  0  0  0  0  0  0  0  0
   -0.2870    2.5450    0.0000 H   0  0  0  0  0  0  0  0  0  0  0  0
    1.4890    2.3800    0.0000 H   0  0  0  0  0  0  0  0  0  0  0  0
   -2.4010    0.8710    0.0000 H   0  0  0  0  0  0  0  0  0  0  0  0
   -1.2000    2.1910    0.0000 H   0  0  0  0  0  0  0  0  0  0  0  0
    1.7660    3.0050    0.0000 H   0  0  0  0  0  0  0  0  0  0  0  0
    3.3370   -0.3230    0.0000 H   0  0  0  0  0  0  0  0  0  0  0  0
    4.1450    3.4980    0.0000 H   0  0  0  0  0  0  0  0  0  0  0  0
    9.1720    4.3390    0.0000 H   0  0  0  0  0  0  0  0  0  0  0  0
    9.7550    1.3960    0.0000 H   0  0  0  0  0  0  0  0  0  0  0  0
    8.0820   -3.5230    0.0000 H   0  0  0  0  0  0  0  0  0  0  0  0
    5.8250   -5.5000    0.0000 H   0  0  0  0  0  0  0  0  0  0  0  0
    2.3530   -1.7670    0.0000 H   0  0  0  0  0  0  0  0  0  0  0  0
   -2.2510    1.1880    0.0000 H   0  0  0  0  0  0  0  0  0  0  0  0
   -3.0410   -1.7000    0.0000 H   0  0  0  0  0  0  0  0  0  0  0  0
   -2.7290    2.3630    0.0000 H   0  0  0  0  0  0  0  0  0  0  0  0
   -5.5060    4.1590    0.0000 H   0  0  0  0  0  0  0  0  0  0  0  0
   -3.9540    3.5220    0.0000 H   0  0  0  0  0  0  0  0  0  0  0  0
   -7.9530    3.4160    0.0000 H   0  0  0  0  0  0  0  0  0  0  0  0
   -6.5870    4.0890    0.0000 H   0  0  0  0  0  0  0  0  0  0  0  0
   -9.1570    1.1610    0.0000 H   0  0  0  0  0  0  0  0  0  0  0  0
   -8.6670    2.6030    0.0000 H   0  0  0  0  0  0  0  0  0  0  0  0
   -8.4150   -1.2850    0.0000 H   0  0  0  0  0  0  0  0  0  0  0  0
   -9.0870    0.0810    0.0000 H   0  0  0  0  0  0  0  0  0  0  0  0
   -6.1600   -2.4900    0.0000 H   0  0  0  0  0  0  0  0  0  0  0  0
   -7.6020   -1.9990    0.0000 H   0  0  0  0  0  0  0  0  0  0  0  0
   -3.8240   -1.8940    0.0000 H   0  0  0  0  0  0  0  0  0  0  0  0
   -5.0800   -2.4200    0.0000 H   0  0  0  0  0  0  0  0  0  0  0  0
  1  2  1  0  0  0  0
  1 37  1  0  0  0  0
  1 38  1  0  0  0  0
  1 39  1  0  0  0  0
  2 40  1  0  0  0  0
  2 41  1  0  0  0  0
  3  2  1  6  0  0  0
  3  4  1  0  0  0  0
  3  8  1  0  0  0  0
  3 28  1  0  0  0  0
  4  5  1  0  0  0  0
  4 42  1  0  0  0  0
  4 43  1  0  0  0  0
  5  6  1  0  0  0  0
  5 44  1  0  0  0  0
  5 45  1  0  0  0  0
  6  7  1  0  0  0  0
  6  9  1  0  0  0  0
  6 46  1  6  0  0  0
  7  8  1  0  0  0  0
  7 47  1  0  0  0  0
  7 48  1  0  0  0  0
  8 49  1  0  0  0  0
  8 50  1  0  0  0  0
  9 10  1  0  0  0  0
  9 51  1  0  0  0  0
 10 11  2  0  0  0  0
 10 12  1  0  0  0  0
 12 13  1  0  0  0  0
 12 17  1  0  0  0  0
 12 52  1  0  0  0  0
 13 14  2  0  0  0  0
 13 26  1  0  0  0  0
 14 15  1  0  0  0  0
 14 23  1  0  0  0  0
 15 16  1  0  0  0  0
 16 17  2  0  0  0  0
 16 22  1  0  0  0  0
 17 18  1  0  0  0  0
 18 19  2  0  0  0  0
 18 53  1  0  0  0  0
 19 20  1  0  0  0  0
 19 21  1  0  0  0  0
 21 22  2  0  0  0  0
 21 54  1  0  0  0  0
 22 55  1  0  0  0  0
 23 24  2  0  0  0  0
 23 56  1  0  0  0  0
 24 25  1  0  0  0  0
 24 57  1  0  0  0  0
 25 26  2  0  0  0  0
 25 27  1  0  0  0  0
 26 58  1  0  0  0  0
 28 29  1  0  0  0  0
 28 59  1  0  0  0  0
 28 60  1  0  0  0  0
 29 30  2  0  0  0  0
 29 36  1  0  0  0  0
 30 31  1  0  0  0  0
 30 61  1  0  0  0  0
 31 32  1  0  0  0  0
 31 62  1  0  0  0  0
 31 63  1  0  0  0  0
 32 33  1  0  0  0  0
 32 64  1  0  0  0  0
 32 65  1  0  0  0  0
 33 34  1  0  0  0  0
 33 66  1  0  0  0  0
 33 67  1  0  0  0  0
 34 35  1  0  0  0  0
 34 68  1  0  0  0  0
 34 69  1  0  0  0  0
 35 36  1  0  0  0  0
 35 70  1  0  0  0  0
 35 71  1  0  0  0  0
 36 72  1  0  0  0  0
 36 73  1  0  0  0  0
M  CHG  1   3   1
M  END
$$$$
