2D_structures\o45_MMV1580499_2D.pdb
 OpenBabel02282409193D

 27 28  0  0  0  0  0  0  0  0999 V2000
   -5.3380    3.1620    0.0000 Cl  0  0  0  0  0  0  0  0  0  0  0  0
   -4.7540    1.7800    0.0000 C   0  0  0  0  0  0  0  0  0  0  0  0
   -5.5290    0.4960    0.0000 C   0  0  0  0  0  0  0  0  0  0  0  0
   -4.5470   -0.6380    0.0000 C   0  0  0  0  0  0  0  0  0  0  0  0
   -3.1650   -0.0550    0.0000 C   0  0  0  0  0  0  0  0  0  0  0  0
   -3.2930    1.4400    0.0000 S   0  0  0  0  0  0  0  0  0  0  0  0
   -1.8810   -0.8300    0.0000 S   0  0  0  0  0  0  0  0  0  0  0  0
   -1.1060    0.4540    0.0000 O   0  0  0  0  0  0  0  0  0  0  0  0
   -2.6560   -2.1140    0.0000 O   0  0  0  0  0  0  0  0  0  0  0  0
   -0.5970   -1.6050    0.0000 N   0  0  0  0  0  0  0  0  0  0  0  0
    0.7170   -0.8800    0.0000 C   0  0  0  0  0  0  0  0  0  0  0  0
    2.0010   -1.6550    0.0000 C   0  0  0  0  0  0  0  0  0  0  0  0
    3.3140   -0.9300    0.0000 N   0  0  0  0  0  0  0  0  0  0  0  0
    3.3430    0.5690    0.0000 C   0  0  0  0  0  0  0  0  0  0  0  0
    4.6560    1.2940    0.0000 O   0  0  0  0  0  0  0  0  0  0  0  0
    5.9410    0.5190    0.0000 C   0  0  0  0  0  0  0  0  0  0  0  0
    2.0590    1.3440    0.0000 C   0  0  0  0  0  0  0  0  0  0  0  0
    0.7460    0.6200    0.0000 C   0  0  0  0  0  0  0  0  0  0  0  0
   -7.0240    0.3680    0.0000 H   0  0  0  0  0  0  0  0  0  0  0  0
   -4.8870   -2.0990    0.0000 H   0  0  0  0  0  0  0  0  0  0  0  0
   -0.6260   -3.1050    0.0000 H   0  0  0  0  0  0  0  0  0  0  0  0
    1.9720   -3.1550    0.0000 H   0  0  0  0  0  0  0  0  0  0  0  0
    7.2250   -0.2560    0.0000 H   0  0  0  0  0  0  0  0  0  0  0  0
    6.7160    1.8030    0.0000 H   0  0  0  0  0  0  0  0  0  0  0  0
    5.1660   -0.7650    0.0000 H   0  0  0  0  0  0  0  0  0  0  0  0
    2.0880    2.8440    0.0000 H   0  0  0  0  0  0  0  0  0  0  0  0
   -0.5390    1.3950    0.0000 H   0  0  0  0  0  0  0  0  0  0  0  0
  1  2  1  0  0  0  0
  2  3  2  0  0  0  0
  2  6  1  0  0  0  0
  3  4  1  0  0  0  0
  3 19  1  0  0  0  0
  4  5  2  0  0  0  0
  4 20  1  0  0  0  0
  5  6  1  0  0  0  0
  5  7  1  0  0  0  0
  7  8  2  0  0  0  0
  7  9  2  0  0  0  0
  7 10  1  0  0  0  0
 10 11  1  0  0  0  0
 10 21  1  0  0  0  0
 11 12  2  0  0  0  0
 11 18  1  0  0  0  0
 12 13  1  0  0  0  0
 12 22  1  0  0  0  0
 13 14  2  0  0  0  0
 14 15  1  0  0  0  0
 14 17  1  0  0  0  0
 15 16  1  0  0  0  0
 16 23  1  0  0  0  0
 16 24  1  0  0  0  0
 16 25  1  0  0  0  0
 17 18  2  0  0  0  0
 17 26  1  0  0  0  0
 18 27  1  0  0  0  0
M  END
$$$$
