2D_structures\o47_MMV1782114_2D.pdb
 OpenBabel02282409193D

 42 46  0  0  1  0  0  0  0  0999 V2000
    9.3910    0.4170    0.0000 F   0  0  0  0  0  0  0  0  0  0  0  0
    7.9040    0.2240    0.0000 C   0  0  0  0  0  0  0  0  0  0  0  0
    8.0970   -1.2640    0.0000 F   0  0  0  0  0  0  0  0  0  0  0  0
    7.7100    1.7110    0.0000 F   0  0  0  0  0  0  0  0  0  0  0  0
    6.4160    0.0310    0.0000 C   0  0  0  0  0  0  0  0  0  0  0  0
    5.8400   -1.3540    0.0000 C   0  0  0  0  0  0  0  0  0  0  0  0
    4.3520   -1.5470    0.0000 C   0  0  0  0  0  0  0  0  0  0  0  0
    3.4410   -0.3560    0.0000 C   0  0  0  0  0  0  0  0  0  0  0  0
    4.0170    1.0290    0.0000 C   0  0  0  0  0  0  0  0  0  0  0  0
    5.5050    1.2220    0.0000 C   0  0  0  0  0  0  0  0  0  0  0  0
    1.9540   -0.5490    0.0000 C   0  0  0  0  0  0  0  0  0  0  0  0
    1.3770   -1.9340    0.0000 O   0  0  0  0  0  0  0  0  0  0  0  0
    1.0420    0.6430    0.0000 N   0  0  0  0  0  0  0  0  0  0  0  0
   -0.4450    0.4500    0.0000 N   0  0  0  0  0  0  0  0  0  0  0  0
   -1.4760    1.5390    0.0000 C   0  0  0  0  0  0  0  0  0  0  0  0
   -1.2000    3.0140    0.0000 O   0  0  0  0  0  0  0  0  0  0  0  0
   -2.8310    0.8960    0.0000 C   0  0  1  0  0  0  0  0  0  0  0  0
   -4.2160    1.4720    0.0000 C   0  0  1  0  0  0  0  0  0  0  0  0
   -4.0600    0.6640    0.0000 C   0  0  0  0  0  0  0  0  0  0  0  0
   -3.8850   -0.6810    0.0000 C   0  0  0  0  0  0  0  0  0  0  0  0
   -3.8290   -1.5030    0.0000 C   0  0  1  0  0  0  0  0  0  0  0  0
   -5.2140   -0.9260    0.0000 C   0  0  1  0  0  0  0  0  0  0  0  0
   -6.5990   -0.3500    0.0000 C   0  0  0  0  0  0  0  0  0  0  0  0
   -5.4070    0.5610    0.0000 C   0  0  1  0  0  0  0  0  0  0  0  0
   -2.6370   -0.5910    0.0000 C   0  0  1  0  0  0  0  0  0  0  0  0
   -1.1630   -0.8670    0.0000 C   0  0  0  0  0  0  0  0  0  0  0  0
   -0.5200   -2.2220    0.0000 O   0  0  0  0  0  0  0  0  0  0  0  0
    6.7510   -2.5460    0.0000 H   0  0  0  0  0  0  0  0  0  0  0  0
    3.7760   -2.9320    0.0000 H   0  0  0  0  0  0  0  0  0  0  0  0
    3.1060    2.2210    0.0000 H   0  0  0  0  0  0  0  0  0  0  0  0
    6.0810    2.6070    0.0000 H   0  0  0  0  0  0  0  0  0  0  0  0
    1.6190    2.0280    0.0000 H   0  0  0  0  0  0  0  0  0  0  0  0
   -2.8670    2.3960    0.0000 H   0  0  0  0  0  0  0  0  0  0  0  0
   -4.4090    2.9600    0.0000 H   0  0  0  0  0  0  0  0  0  0  0  0
   -3.3240    0.8980    0.0000 H   0  0  0  0  0  0  0  0  0  0  0  0
   -1.1540   -0.8160    0.0000 H   0  0  0  0  0  0  0  0  0  0  0  0
   -3.6360   -2.9900    0.0000 H   0  0  0  0  0  0  0  0  0  0  0  0
   -5.7900   -2.3110    0.0000 H   0  0  0  0  0  0  0  0  0  0  0  0
   -7.4070   -1.6130    0.0000 H   0  0  0  0  0  0  0  0  0  0  0  0
   -7.7030    0.6660    0.0000 H   0  0  0  0  0  0  0  0  0  0  0  0
   -6.3180    1.7530    0.0000 H   0  0  0  0  0  0  0  0  0  0  0  0
   -2.2900   -2.0510    0.0000 H   0  0  0  0  0  0  0  0  0  0  0  0
  1  2  1  0  0  0  0
  2  3  1  0  0  0  0
  2  4  1  0  0  0  0
  2  5  1  0  0  0  0
  5  6  2  0  0  0  0
  5 10  1  0  0  0  0
  6  7  1  0  0  0  0
  6 28  1  0  0  0  0
  7  8  2  0  0  0  0
  7 29  1  0  0  0  0
  8  9  1  0  0  0  0
  8 11  1  0  0  0  0
  9 10  2  0  0  0  0
  9 30  1  0  0  0  0
 10 31  1  0  0  0  0
 11 12  2  0  0  0  0
 11 13  1  0  0  0  0
 13 14  1  0  0  0  0
 13 32  1  0  0  0  0
 14 15  1  0  0  0  0
 14 26  1  0  0  0  0
 15 16  2  0  0  0  0
 15 17  1  0  0  0  0
 17 18  1  0  0  0  0
 17 25  1  0  0  0  0
 17 33  1  1  0  0  0
 18 19  1  0  0  0  0
 18 24  1  0  0  0  0
 18 34  1  6  0  0  0
 19 20  2  0  0  0  0
 19 35  1  0  0  0  0
 20 21  1  0  0  0  0
 20 36  1  0  0  0  0
 21 22  1  0  0  0  0
 21 25  1  0  0  0  0
 21 37  1  1  0  0  0
 22 23  1  0  0  0  0
 22 24  1  0  0  0  0
 22 38  1  6  0  0  0
 23 24  1  0  0  0  0
 23 39  1  0  0  0  0
 23 40  1  0  0  0  0
 24 41  1  6  0  0  0
 25 26  1  0  0  0  0
 25 42  1  1  0  0  0
 26 27  2  0  0  0  0
M  END
$$$$
