2D_structures\o48_MMV018362_2D.pdb
 OpenBabel02282409193D

 30 32  0  0  0  0  0  0  0  0999 V2000
    1.2700   -3.9080    0.0000 O   0  0  0  0  0  0  0  0  0  0  0  0
    2.0710   -2.6390    0.0000 C   0  0  0  0  0  0  0  0  0  0  0  0
    3.5700   -2.6990    0.0000 O   0  0  0  0  0  0  0  0  0  0  0  0
    1.3740   -1.3120    0.0000 C   0  0  0  0  0  0  0  0  0  0  0  0
   -0.1250   -1.2520    0.0000 C   0  0  0  0  0  0  0  0  0  0  0  0
   -0.8230    0.0760    0.0000 C   0  0  0  0  0  0  0  0  0  0  0  0
   -0.0210    1.3440    0.0000 N   0  0  0  0  0  0  0  0  0  0  0  0
    1.4770    1.2840    0.0000 C   0  0  0  0  0  0  0  0  0  0  0  0
    2.2790    2.5530    0.0000 C   0  0  0  0  0  0  0  0  0  0  0  0
    3.7770    2.4930    0.0000 C   0  0  0  0  0  0  0  0  0  0  0  0
    4.4750    1.1650    0.0000 C   0  0  0  0  0  0  0  0  0  0  0  0
    3.6740   -0.1030    0.0000 C   0  0  0  0  0  0  0  0  0  0  0  0
    2.1750   -0.0430    0.0000 C   0  0  0  0  0  0  0  0  0  0  0  0
   -2.3210    0.1360    0.0000 C   0  0  0  0  0  0  0  0  0  0  0  0
   -3.0190    1.4640    0.0000 C   0  0  0  0  0  0  0  0  0  0  0  0
   -4.5180    1.5240    0.0000 C   0  0  0  0  0  0  0  0  0  0  0  0
   -5.3190    0.2560    0.0000 C   0  0  0  0  0  0  0  0  0  0  0  0
   -4.6210   -1.0720    0.0000 C   0  0  0  0  0  0  0  0  0  0  0  0
   -3.1230   -1.1320    0.0000 C   0  0  0  0  0  0  0  0  0  0  0  0
    4.2680   -4.0270    0.0000 H   0  0  0  0  0  0  0  0  0  0  0  0
   -0.9260   -2.5200    0.0000 H   0  0  0  0  0  0  0  0  0  0  0  0
    1.5810    3.8800    0.0000 H   0  0  0  0  0  0  0  0  0  0  0  0
    4.5790    3.7610    0.0000 H   0  0  0  0  0  0  0  0  0  0  0  0
    5.9740    1.1050    0.0000 H   0  0  0  0  0  0  0  0  0  0  0  0
    4.3710   -1.4310    0.0000 H   0  0  0  0  0  0  0  0  0  0  0  0
   -2.2180    2.7320    0.0000 H   0  0  0  0  0  0  0  0  0  0  0  0
   -5.2150    2.8520    0.0000 H   0  0  0  0  0  0  0  0  0  0  0  0
   -6.8180    0.3150    0.0000 H   0  0  0  0  0  0  0  0  0  0  0  0
   -5.4230   -2.3400    0.0000 H   0  0  0  0  0  0  0  0  0  0  0  0
   -2.4250   -2.4600    0.0000 H   0  0  0  0  0  0  0  0  0  0  0  0
  1  2  2  0  0  0  0
  2  3  1  0  0  0  0
  2  4  1  0  0  0  0
  3 20  1  0  0  0  0
  4  5  2  0  0  0  0
  4 13  1  0  0  0  0
  5  6  1  0  0  0  0
  5 21  1  0  0  0  0
  6  7  2  0  0  0  0
  6 14  1  0  0  0  0
  7  8  1  0  0  0  0
  8  9  2  0  0  0  0
  8 13  1  0  0  0  0
  9 10  1  0  0  0  0
  9 22  1  0  0  0  0
 10 11  2  0  0  0  0
 10 23  1  0  0  0  0
 11 12  1  0  0  0  0
 11 24  1  0  0  0  0
 12 13  2  0  0  0  0
 12 25  1  0  0  0  0
 14 15  2  0  0  0  0
 14 19  1  0  0  0  0
 15 16  1  0  0  0  0
 15 26  1  0  0  0  0
 16 17  2  0  0  0  0
 16 27  1  0  0  0  0
 17 18  1  0  0  0  0
 17 28  1  0  0  0  0
 18 19  2  0  0  0  0
 18 29  1  0  0  0  0
 19 30  1  0  0  0  0
M  END
$$$$
