2D_structures\o49_MMV1634556_2D.pdb
 OpenBabel02282409193D

 49 51  0  0  0  0  0  0  0  0999 V2000
  -11.1420    1.4700    0.0000 F   0  0  0  0  0  0  0  0  0  0  0  0
   -9.6450    1.5630    0.0000 C   0  0  0  0  0  0  0  0  0  0  0  0
   -9.7390    3.0600    0.0000 F   0  0  0  0  0  0  0  0  0  0  0  0
   -9.5520    0.0660    0.0000 F   0  0  0  0  0  0  0  0  0  0  0  0
   -8.1480    1.6570    0.0000 C   0  0  0  0  0  0  0  0  0  0  0  0
   -7.1930    0.5010    0.0000 N   0  0  0  0  0  4  0  0  0  0  0  0
   -5.7980    1.0520    0.0000 C   0  0  0  0  0  0  0  0  0  0  0  0
   -5.8910    2.5490    0.0000 N   0  0  0  0  0  0  0  0  0  0  0  0
   -7.3440    2.9230    0.0000 O   0  0  0  0  0  0  0  0  0  0  0  0
   -4.5320    0.2480    0.0000 C   0  0  0  0  0  0  0  0  0  0  0  0
   -4.5950   -1.2510    0.0000 C   0  0  0  0  0  0  0  0  0  0  0  0
   -3.3290   -2.0550    0.0000 C   0  0  0  0  0  0  0  0  0  0  0  0
   -2.0000   -1.3610    0.0000 C   0  0  0  0  0  0  0  0  0  0  0  0
   -0.7330   -2.1650    0.0000 O   0  0  0  0  0  0  0  0  0  0  0  0
    0.5960   -1.4710    0.0000 C   0  0  0  0  0  0  0  0  0  0  0  0
    1.9260   -0.7770    0.0000 C   0  0  0  0  0  0  0  0  0  0  0  0
    3.2560   -0.0830    0.0000 C   0  0  0  0  0  0  0  0  0  0  0  0
    4.5850    0.6120    0.0000 C   0  0  0  0  0  0  0  0  0  0  0  0
    5.9280   -0.0560    0.0000 C   0  0  0  0  0  0  0  0  0  0  0  0
    6.9780    1.0150    0.0000 C   0  0  0  0  0  0  0  0  0  0  0  0
    6.2840    2.3450    0.0000 N   0  0  0  0  0  0  0  0  0  0  0  0
    4.8050    2.0950    0.0000 O   0  0  0  0  0  0  0  0  0  0  0  0
    8.4620    0.7950    0.0000 C   0  0  0  0  0  0  0  0  0  0  0  0
    9.9460    0.5750    0.0000 C   0  0  0  0  0  0  0  0  0  0  0  0
   -1.9360    0.1380    0.0000 C   0  0  0  0  0  0  0  0  0  0  0  0
   -3.2020    0.9420    0.0000 C   0  0  0  0  0  0  0  0  0  0  0  0
   -0.6060    0.8320    0.0000 C   0  0  0  0  0  0  0  0  0  0  0  0
   -3.3930   -3.5540    0.0000 C   0  0  0  0  0  0  0  0  0  0  0  0
   -5.9250   -1.9450    0.0000 H   0  0  0  0  0  0  0  0  0  0  0  0
    1.2900   -2.8010    0.0000 H   0  0  0  0  0  0  0  0  0  0  0  0
    0.1440   -0.8150    0.0000 H   0  0  0  0  0  0  0  0  0  0  0  0
    1.2320    0.5530    0.0000 H   0  0  0  0  0  0  0  0  0  0  0  0
    2.6200   -2.1070    0.0000 H   0  0  0  0  0  0  0  0  0  0  0  0
    3.9500   -1.4120    0.0000 H   0  0  0  0  0  0  0  0  0  0  0  0
    2.5610    1.2470    0.0000 H   0  0  0  0  0  0  0  0  0  0  0  0
    6.1780   -1.5350    0.0000 H   0  0  0  0  0  0  0  0  0  0  0  0
    8.6820    2.2790    0.0000 H   0  0  0  0  0  0  0  0  0  0  0  0
    8.2420   -0.6880    0.0000 H   0  0  0  0  0  0  0  0  0  0  0  0
   11.4300    0.3560    0.0000 H   0  0  0  0  0  0  0  0  0  0  0  0
    9.7260   -0.9080    0.0000 H   0  0  0  0  0  0  0  0  0  0  0  0
   10.1660    2.0590    0.0000 H   0  0  0  0  0  0  0  0  0  0  0  0
   -3.1390    2.4410    0.0000 H   0  0  0  0  0  0  0  0  0  0  0  0
    0.7230    1.5260    0.0000 H   0  0  0  0  0  0  0  0  0  0  0  0
   -0.3260    0.0860    0.0000 H   0  0  0  0  0  0  0  0  0  0  0  0
   -1.3010    2.1620    0.0000 H   0  0  0  0  0  0  0  0  0  0  0  0
   -3.4560   -5.0530    0.0000 H   0  0  0  0  0  0  0  0  0  0  0  0
   -1.8940   -3.6180    0.0000 H   0  0  0  0  0  0  0  0  0  0  0  0
   -4.8910   -3.4900    0.0000 H   0  0  0  0  0  0  0  0  0  0  0  0
   -5.1320    3.1760    0.0000 H   0  0  0  0  0  0  0  0  0  0  0  0
  1  2  1  0  0  0  0
  2  3  1  0  0  0  0
  2  4  1  0  0  0  0
  2  5  1  0  0  0  0
  5  6  2  0  0  0  0
  5  9  1  0  0  0  0
  6  7  2  0  0  0  0
  7  8  1  0  0  0  0
  7 10  1  0  0  0  0
  8  9  1  0  0  0  0
  8 49  1  0  0  0  0
 10 11  2  0  0  0  0
 10 26  1  0  0  0  0
 11 12  1  0  0  0  0
 11 29  1  0  0  0  0
 12 13  2  0  0  0  0
 12 28  1  0  0  0  0
 13 14  1  0  0  0  0
 13 25  1  0  0  0  0
 14 15  1  0  0  0  0
 15 16  1  0  0  0  0
 15 30  1  0  0  0  0
 15 31  1  0  0  0  0
 16 17  1  0  0  0  0
 16 32  1  0  0  0  0
 16 33  1  0  0  0  0
 17 18  1  0  0  0  0
 17 34  1  0  0  0  0
 17 35  1  0  0  0  0
 18 19  2  0  0  0  0
 18 22  1  0  0  0  0
 19 20  1  0  0  0  0
 19 36  1  0  0  0  0
 20 21  2  0  0  0  0
 20 23  1  0  0  0  0
 21 22  1  0  0  0  0
 23 24  1  0  0  0  0
 23 37  1  0  0  0  0
 23 38  1  0  0  0  0
 24 39  1  0  0  0  0
 24 40  1  0  0  0  0
 24 41  1  0  0  0  0
 25 26  2  0  0  0  0
 25 27  1  0  0  0  0
 26 42  1  0  0  0  0
 27 43  1  0  0  0  0
 27 44  1  0  0  0  0
 27 45  1  0  0  0  0
 28 46  1  0  0  0  0
 28 47  1  0  0  0  0
 28 48  1  0  0  0  0
M  END
$$$$
