2D_structures\o4_MMV1580800_2D.pdb
 OpenBabel02282409193D

 26 27  0  0  0  0  0  0  0  0999 V2000
    3.2710    2.8830    0.0000 Cl  0  0  0  0  0  0  0  0  0  0  0  0
    3.2080    1.3840    0.0000 C   0  0  0  0  0  0  0  0  0  0  0  0
    1.8790    0.6890    0.0000 C   0  0  0  0  0  0  0  0  0  0  0  0
    0.6120    1.4920    0.0000 O   0  0  0  0  0  0  0  0  0  0  0  0
   -0.7170    0.7970    0.0000 C   0  0  0  0  0  0  0  0  0  0  0  0
   -1.9830    1.6010    0.0000 C   0  0  0  0  0  0  0  0  0  0  0  0
   -1.9210    3.1000    0.0000 C   0  0  0  0  0  0  0  0  0  0  0  0
   -1.8580    4.5980    0.0000 N   0  0  0  0  0  0  0  0  0  0  0  0
   -3.3130    0.9060    0.0000 C   0  0  0  0  0  0  0  0  0  0  0  0
   -3.3750   -0.5930    0.0000 C   0  0  0  0  0  0  0  0  0  0  0  0
   -4.7040   -1.2880    0.0000 N   0  3  0  0  0  0  0  0  0  0  0  0
   -4.7670   -2.7870    0.0000 O   0  5  0  0  0  0  0  0  0  0  0  0
   -5.9710   -0.4850    0.0000 O   0  0  0  0  0  0  0  0  0  0  0  0
   -2.1090   -1.3970    0.0000 C   0  0  0  0  0  0  0  0  0  0  0  0
   -0.7790   -0.7010    0.0000 C   0  0  0  0  0  0  0  0  0  0  0  0
    1.8160   -0.8100    0.0000 C   0  0  0  0  0  0  0  0  0  0  0  0
    3.0830   -1.6130    0.0000 C   0  0  0  0  0  0  0  0  0  0  0  0
    4.4120   -0.9180    0.0000 C   0  0  0  0  0  0  0  0  0  0  0  0
    4.4750    0.5810    0.0000 C   0  0  0  0  0  0  0  0  0  0  0  0
   -4.5790    1.7090    0.0000 H   0  0  0  0  0  0  0  0  0  0  0  0
   -2.1710   -2.8950    0.0000 H   0  0  0  0  0  0  0  0  0  0  0  0
   -0.0190   -1.3260    0.0000 H   0  0  0  0  0  0  0  0  0  0  0  0
    1.0060   -1.3690    0.0000 H   0  0  0  0  0  0  0  0  0  0  0  0
    3.0200   -3.1120    0.0000 H   0  0  0  0  0  0  0  0  0  0  0  0
    5.6790   -1.7220    0.0000 H   0  0  0  0  0  0  0  0  0  0  0  0
    5.8040    1.2760    0.0000 H   0  0  0  0  0  0  0  0  0  0  0  0
  1  2  1  0  0  0  0
  2  3  2  0  0  0  0
  2 19  1  0  0  0  0
  3  4  1  0  0  0  0
  3 16  1  0  0  0  0
  4  5  1  0  0  0  0
  5  6  2  0  0  0  0
  5 15  1  0  0  0  0
  6  7  1  0  0  0  0
  6  9  1  0  0  0  0
  7  8  3  0  0  0  0
  9 10  2  0  0  0  0
  9 20  1  0  0  0  0
 10 11  1  0  0  0  0
 10 14  1  0  0  0  0
 11 12  1  0  0  0  0
 11 13  2  0  0  0  0
 14 15  2  0  0  0  0
 14 21  1  0  0  0  0
 15 22  1  0  0  0  0
 16 17  2  0  0  0  0
 16 23  1  0  0  0  0
 17 18  1  0  0  0  0
 17 24  1  0  0  0  0
 18 19  2  0  0  0  0
 18 25  1  0  0  0  0
 19 26  1  0  0  0  0
M  CHG  2  11   1  12  -1
M  END
$$$$
