2D_structures\o51_MMV1634394_2D.pdb
 OpenBabel02282409193D

 51 53  0  0  0  0  0  0  0  0999 V2000
   -8.2590   -0.4500    0.0000 S   0  0  0  0  0  0  0  0  0  0  0  0
   -8.8660    0.9220    0.0000 O   0  0  0  0  0  0  0  0  0  0  0  0
   -7.6510   -1.8210    0.0000 O   0  0  0  0  0  0  0  0  0  0  0  0
   -6.8870    0.1580    0.0000 C   0  0  0  0  0  0  0  0  0  0  0  0
   -6.7280    1.6490    0.0000 C   0  0  0  0  0  0  0  0  0  0  0  0
   -5.3560    2.2570    0.0000 C   0  0  0  0  0  0  0  0  0  0  0  0
   -4.1440    1.3730    0.0000 C   0  0  0  0  0  0  0  0  0  0  0  0
   -2.7730    1.9800    0.0000 O   0  0  0  0  0  0  0  0  0  0  0  0
   -1.5610    1.0960    0.0000 C   0  0  0  0  0  0  0  0  0  0  0  0
   -0.3490    0.2120    0.0000 C   0  0  0  0  0  0  0  0  0  0  0  0
    0.8630   -0.6710    0.0000 C   0  0  0  0  0  0  0  0  0  0  0  0
    1.5230    0.6750    0.0000 C   0  0  0  0  0  0  0  0  0  0  0  0
    3.0190    0.7770    0.0000 C   0  0  0  0  0  0  0  0  0  0  0  0
    3.8560   -0.4680    0.0000 N   0  0  0  0  0  0  0  0  0  0  0  0
    5.3520   -0.3660    0.0000 C   0  0  0  0  0  0  0  0  0  0  0  0
    6.1890   -1.6110    0.0000 N   0  0  0  0  0  0  0  0  0  0  0  0
    7.6850   -1.5090    0.0000 N   0  0  0  0  0  0  0  0  0  0  0  0
    8.3450   -0.1620    0.0000 C   0  0  0  0  0  0  0  0  0  0  0  0
    9.8420   -0.0600    0.0000 C   0  0  0  0  0  0  0  0  0  0  0  0
    7.5090    1.0830    0.0000 C   0  0  0  0  0  0  0  0  0  0  0  0
    6.0130    0.9810    0.0000 C   0  0  0  0  0  0  0  0  0  0  0  0
    3.1960   -1.8150    0.0000 C   0  0  0  0  0  0  0  0  0  0  0  0
    1.6990   -1.9170    0.0000 C   0  0  0  0  0  0  0  0  0  0  0  0
   -4.3040   -0.1190    0.0000 C   0  0  0  0  0  0  0  0  0  0  0  0
   -5.6750   -0.7260    0.0000 C   0  0  0  0  0  0  0  0  0  0  0  0
   -9.6300   -1.0570    0.0000 C   0  0  0  0  0  0  0  0  0  0  0  0
   -7.9390    2.5330    0.0000 H   0  0  0  0  0  0  0  0  0  0  0  0
   -5.1970    3.7480    0.0000 H   0  0  0  0  0  0  0  0  0  0  0  0
   -2.4450   -0.1150    0.0000 H   0  0  0  0  0  0  0  0  0  0  0  0
   -0.6770    2.3080    0.0000 H   0  0  0  0  0  0  0  0  0  0  0  0
   -1.2330   -0.9990    0.0000 H   0  0  0  0  0  0  0  0  0  0  0  0
    0.0390    0.9090    0.0000 H   0  0  0  0  0  0  0  0  0  0  0  0
   -0.2180   -1.7110    0.0000 H   0  0  0  0  0  0  0  0  0  0  0  0
    1.6820    2.1670    0.0000 H   0  0  0  0  0  0  0  0  0  0  0  0
    0.7900    0.9880    0.0000 H   0  0  0  0  0  0  0  0  0  0  0  0
    4.3910    1.3850    0.0000 H   0  0  0  0  0  0  0  0  0  0  0  0
    2.6590    2.2330    0.0000 H   0  0  0  0  0  0  0  0  0  0  0  0
   11.3390    0.0410    0.0000 H   0  0  0  0  0  0  0  0  0  0  0  0
    9.9440   -1.5570    0.0000 H   0  0  0  0  0  0  0  0  0  0  0  0
    9.7400    1.4360    0.0000 H   0  0  0  0  0  0  0  0  0  0  0  0
    8.1690    2.4300    0.0000 H   0  0  0  0  0  0  0  0  0  0  0  0
    5.1760    2.2260    0.0000 H   0  0  0  0  0  0  0  0  0  0  0  0
    3.0360   -3.3060    0.0000 H   0  0  0  0  0  0  0  0  0  0  0  0
    4.6370   -2.2310    0.0000 H   0  0  0  0  0  0  0  0  0  0  0  0
    0.3280   -2.5240    0.0000 H   0  0  0  0  0  0  0  0  0  0  0  0
    2.0590   -3.3730    0.0000 H   0  0  0  0  0  0  0  0  0  0  0  0
   -3.0920   -1.0030    0.0000 H   0  0  0  0  0  0  0  0  0  0  0  0
   -5.8350   -2.2180    0.0000 H   0  0  0  0  0  0  0  0  0  0  0  0
  -11.0020   -1.6650    0.0000 H   0  0  0  0  0  0  0  0  0  0  0  0
   -9.0230   -2.4290    0.0000 H   0  0  0  0  0  0  0  0  0  0  0  0
  -10.2380    0.3140    0.0000 H   0  0  0  0  0  0  0  0  0  0  0  0
  1  2  2  0  0  0  0
  1  3  2  0  0  0  0
  1  4  1  0  0  0  0
  1 26  1  0  0  0  0
  4  5  2  0  0  0  0
  4 25  1  0  0  0  0
  5  6  1  0  0  0  0
  5 27  1  0  0  0  0
  6  7  2  0  0  0  0
  6 28  1  0  0  0  0
  7  8  1  0  0  0  0
  7 24  1  0  0  0  0
  8  9  1  0  0  0  0
  9 10  1  0  0  0  0
  9 29  1  0  0  0  0
  9 30  1  0  0  0  0
 10 11  1  0  0  0  0
 10 31  1  0  0  0  0
 10 32  1  0  0  0  0
 11 12  1  0  0  0  0
 11 23  1  0  0  0  0
 11 33  1  0  0  0  0
 12 13  1  0  0  0  0
 12 34  1  0  0  0  0
 12 35  1  0  0  0  0
 13 14  1  0  0  0  0
 13 36  1  0  0  0  0
 13 37  1  0  0  0  0
 14 15  1  0  0  0  0
 14 22  1  0  0  0  0
 15 16  2  0  0  0  0
 15 21  1  0  0  0  0
 16 17  1  0  0  0  0
 17 18  2  0  0  0  0
 18 19  1  0  0  0  0
 18 20  1  0  0  0  0
 19 38  1  0  0  0  0
 19 39  1  0  0  0  0
 19 40  1  0  0  0  0
 20 21  2  0  0  0  0
 20 41  1  0  0  0  0
 21 42  1  0  0  0  0
 22 23  1  0  0  0  0
 22 43  1  0  0  0  0
 22 44  1  0  0  0  0
 23 45  1  0  0  0  0
 23 46  1  0  0  0  0
 24 25  2  0  0  0  0
 24 47  1  0  0  0  0
 25 48  1  0  0  0  0
 26 49  1  0  0  0  0
 26 50  1  0  0  0  0
 26 51  1  0  0  0  0
M  END
$$$$
