2D_structures\o52_MMV1633964_2D.pdb
 OpenBabel02282409193D

 40 41  0  0  0  0  0  0  0  0999 V2000
    8.0520   -2.8930    0.0000 F   0  0  0  0  0  0  0  0  0  0  0  0
    7.0570   -1.7710    0.0000 C   0  0  0  0  0  0  0  0  0  0  0  0
    5.9340   -2.7660    0.0000 F   0  0  0  0  0  0  0  0  0  0  0  0
    8.1790   -0.7760    0.0000 F   0  0  0  0  0  0  0  0  0  0  0  0
    6.0610   -0.6490    0.0000 C   0  0  0  0  0  0  0  0  0  0  0  0
    4.5920   -0.9500    0.0000 C   0  0  0  0  0  0  0  0  0  0  0  0
    3.5970    0.1730    0.0000 C   0  0  0  0  0  0  0  0  0  0  0  0
    4.0710    1.5960    0.0000 C   0  0  0  0  0  0  0  0  0  0  0  0
    5.5400    1.8960    0.0000 C   0  0  0  0  0  0  0  0  0  0  0  0
    6.5360    0.7740    0.0000 C   0  0  0  0  0  0  0  0  0  0  0  0
    2.1270   -0.1280    0.0000 C   0  0  0  0  0  0  0  0  0  0  0  0
    1.6530   -1.5510    0.0000 O   0  0  0  0  0  0  0  0  0  0  0  0
    1.1320    0.9940    0.0000 N   0  0  0  0  0  0  0  0  0  0  0  0
   -0.3380    0.6930    0.0000 C   0  0  0  0  0  0  0  0  0  0  0  0
   -1.8070    0.3930    0.0000 C   0  0  0  0  0  0  0  0  0  0  0  0
   -3.2770    0.0920    0.0000 N   0  0  0  0  0  0  0  0  0  0  0  0
   -4.2720    1.2140    0.0000 C   0  0  0  0  0  0  0  0  0  0  0  0
   -5.7420    0.9130    0.0000 C   0  0  0  0  0  0  0  0  0  0  0  0
   -6.2160   -0.5100    0.0000 C   0  0  0  0  0  0  0  0  0  0  0  0
   -5.2210   -1.6320    0.0000 C   0  0  0  0  0  0  0  0  0  0  0  0
   -3.7510   -1.3310    0.0000 C   0  0  0  0  0  0  0  0  0  0  0  0
    4.1180   -2.3730    0.0000 H   0  0  0  0  0  0  0  0  0  0  0  0
    3.0760    2.7180    0.0000 H   0  0  0  0  0  0  0  0  0  0  0  0
    6.0150    3.3190    0.0000 H   0  0  0  0  0  0  0  0  0  0  0  0
    8.0050    1.0750    0.0000 H   0  0  0  0  0  0  0  0  0  0  0  0
    1.6060    2.4170    0.0000 H   0  0  0  0  0  0  0  0  0  0  0  0
   -0.0370   -0.7760    0.0000 H   0  0  0  0  0  0  0  0  0  0  0  0
   -0.6380    2.1630    0.0000 H   0  0  0  0  0  0  0  0  0  0  0  0
   -1.3300   -1.0290    0.0000 H   0  0  0  0  0  0  0  0  0  0  0  0
   -1.9270    1.8880    0.0000 H   0  0  0  0  0  0  0  0  0  0  0  0
   -4.8230    2.6090    0.0000 H   0  0  0  0  0  0  0  0  0  0  0  0
   -3.0990    2.1490    0.0000 H   0  0  0  0  0  0  0  0  0  0  0  0
   -7.2250    1.1330    0.0000 H   0  0  0  0  0  0  0  0  0  0  0  0
   -5.7830    2.4130    0.0000 H   0  0  0  0  0  0  0  0  0  0  0  0
   -7.1480   -1.6850    0.0000 H   0  0  0  0  0  0  0  0  0  0  0  0
   -7.5350    0.2040    0.0000 H   0  0  0  0  0  0  0  0  0  0  0  0
   -4.6690   -3.0270    0.0000 H   0  0  0  0  0  0  0  0  0  0  0  0
   -6.4990   -2.4170    0.0000 H   0  0  0  0  0  0  0  0  0  0  0  0
   -2.3050   -1.7300    0.0000 H   0  0  0  0  0  0  0  0  0  0  0  0
   -3.7100   -2.8310    0.0000 H   0  0  0  0  0  0  0  0  0  0  0  0
  1  2  1  0  0  0  0
  2  3  1  0  0  0  0
  2  4  1  0  0  0  0
  2  5  1  0  0  0  0
  5  6  2  0  0  0  0
  5 10  1  0  0  0  0
  6  7  1  0  0  0  0
  6 22  1  0  0  0  0
  7  8  2  0  0  0  0
  7 11  1  0  0  0  0
  8  9  1  0  0  0  0
  8 23  1  0  0  0  0
  9 10  2  0  0  0  0
  9 24  1  0  0  0  0
 10 25  1  0  0  0  0
 11 12  2  0  0  0  0
 11 13  1  0  0  0  0
 13 14  1  0  0  0  0
 13 26  1  0  0  0  0
 14 15  1  0  0  0  0
 14 27  1  0  0  0  0
 14 28  1  0  0  0  0
 15 16  1  0  0  0  0
 15 29  1  0  0  0  0
 15 30  1  0  0  0  0
 16 17  1  0  0  0  0
 16 21  1  0  0  0  0
 17 18  1  0  0  0  0
 17 31  1  0  0  0  0
 17 32  1  0  0  0  0
 18 19  1  0  0  0  0
 18 33  1  0  0  0  0
 18 34  1  0  0  0  0
 19 20  1  0  0  0  0
 19 35  1  0  0  0  0
 19 36  1  0  0  0  0
 20 21  1  0  0  0  0
 20 37  1  0  0  0  0
 20 38  1  0  0  0  0
 21 39  1  0  0  0  0
 21 40  1  0  0  0  0
M  END
$$$$
