2D_structures\o53_MMV1593516_2D.pdb
 OpenBabel02282409193D

 48 52  0  0  1  0  0  0  0  0999 V2000
   -0.1580   -4.2710    0.0000 F   0  0  0  0  0  0  0  0  0  0  0  0
    0.7560   -3.0820    0.0000 C   0  0  0  0  0  0  0  0  0  0  0  0
    0.1840   -1.6960    0.0000 C   0  0  0  0  0  0  0  0  0  0  0  0
    1.0990   -0.5070    0.0000 N   0  0  0  0  0  0  0  0  0  0  0  0
    2.5850   -0.7040    0.0000 C   0  0  0  0  0  0  0  0  0  0  0  0
    3.5000    0.4850    0.0000 C   0  0  0  0  0  0  0  0  0  0  0  0
    3.0760    1.9230    0.0000 C   0  0  0  0  0  0  0  0  0  0  0  0
    4.3130    2.7720    0.0000 N   0  0  0  0  0  0  0  0  0  0  0  0
    5.5020    1.8570    0.0000 C   0  0  0  0  0  0  0  0  0  0  0  0
    4.9990    0.4440    0.0000 C   0  0  0  0  0  0  0  0  0  0  0  0
    5.9720   -0.6980    0.0000 C   0  0  0  0  0  0  0  0  0  0  0  0
    7.4470   -0.4260    0.0000 C   0  0  0  0  0  0  0  0  0  0  0  0
    8.4200   -1.5680    0.0000 F   0  0  0  0  0  0  0  0  0  0  0  0
    7.9500    0.9870    0.0000 C   0  0  0  0  0  0  0  0  0  0  0  0
    6.9770    2.1290    0.0000 N   0  0  0  0  0  0  0  0  0  0  0  0
    3.1580   -2.0910    0.0000 N   0  0  0  0  0  0  0  0  0  0  0  0
    2.2430   -3.2800    0.0000 C   0  0  0  0  0  0  0  0  0  0  0  0
   -1.3030   -1.4980    0.0000 N   0  0  0  0  0  0  0  0  0  0  0  0
   -1.8750   -0.1120    0.0000 C   0  0  1  0  0  0  0  0  0  0  0  0
   -3.1410   -0.9160    0.0000 C   0  0  1  0  0  0  0  0  0  0  0  0
   -4.0560   -2.1050    0.0000 C   0  0  0  0  0  0  0  0  0  0  0  0
   -5.5560   -2.0910    0.0000 O   0  0  0  0  0  0  0  0  0  0  0  0
   -3.4830   -3.4920    0.0000 O   0  0  0  0  0  0  0  0  0  0  0  0
   -4.4710   -0.2220    0.0000 C   0  0  1  0  0  0  0  0  0  0  0  0
   -4.5350    1.2760    0.0000 C   0  0  0  0  0  0  0  0  0  0  0  0
   -3.2690    2.0810    0.0000 C   0  0  0  0  0  0  0  0  0  0  0  0
   -1.9390    1.3870    0.0000 C   0  0  1  0  0  0  0  0  0  0  0  0
   -2.6600    0.9890    0.0000 C   0  0  0  0  0  0  0  0  0  0  0  0
   -3.8040    0.2610    0.0000 C   0  0  0  0  0  0  0  0  0  0  0  0
    1.6620    2.4260    0.0000 H   0  0  0  0  0  0  0  0  0  0  0  0
    4.3540    4.2710    0.0000 H   0  0  0  0  0  0  0  0  0  0  0  0
    5.4700   -2.1110    0.0000 H   0  0  0  0  0  0  0  0  0  0  0  0
    9.4250    1.2590    0.0000 H   0  0  0  0  0  0  0  0  0  0  0  0
    2.8160   -4.6660    0.0000 H   0  0  0  0  0  0  0  0  0  0  0  0
   -1.8030   -2.3460    0.0000 H   0  0  0  0  0  0  0  0  0  0  0  0
   -0.4110    0.2110    0.0000 H   0  0  0  0  0  0  0  0  0  0  0  0
   -2.5710   -1.7180    0.0000 H   0  0  0  0  0  0  0  0  0  0  0  0
   -4.3980   -4.6810    0.0000 H   0  0  0  0  0  0  0  0  0  0  0  0
   -5.8260   -0.8660    0.0000 H   0  0  0  0  0  0  0  0  0  0  0  0
   -4.9340    2.7220    0.0000 H   0  0  0  0  0  0  0  0  0  0  0  0
   -6.0280    1.1340    0.0000 H   0  0  0  0  0  0  0  0  0  0  0  0
   -2.6470    2.7120    0.0000 H   0  0  0  0  0  0  0  0  0  0  0  0
   -4.1380    3.3030    0.0000 H   0  0  0  0  0  0  0  0  0  0  0  0
   -0.6730    2.1910    0.0000 H   0  0  0  0  0  0  0  0  0  0  0  0
   -2.6000    1.9120    0.0000 H   0  0  0  0  0  0  0  0  0  0  0  0
   -4.4080    3.0560    0.0000 H   0  0  0  0  0  0  0  0  0  0  0  0
   -5.2720    2.5830    0.0000 H   0  0  0  0  0  0  0  0  0  0  0  0
   -5.9490    0.7770    0.0000 H   0  0  0  0  0  0  0  0  0  0  0  0
  1  2  1  0  0  0  0
  2  3  2  0  0  0  0
  2 17  1  0  0  0  0
  3  4  1  0  0  0  0
  3 18  1  0  0  0  0
  4  5  2  0  0  0  0
  5  6  1  0  0  0  0
  5 16  1  0  0  0  0
  6  7  2  0  0  0  0
  6 10  1  0  0  0  0
  7  8  1  0  0  0  0
  7 30  1  0  0  0  0
  8  9  1  0  0  0  0
  8 31  1  0  0  0  0
  9 10  2  0  0  0  0
  9 15  1  0  0  0  0
 10 11  1  0  0  0  0
 11 12  2  0  0  0  0
 11 32  1  0  0  0  0
 12 13  1  0  0  0  0
 12 14  1  0  0  0  0
 14 15  2  0  0  0  0
 14 33  1  0  0  0  0
 16 17  2  0  0  0  0
 17 34  1  0  0  0  0
 18 19  1  0  0  0  0
 18 35  1  0  0  0  0
 19 20  1  0  0  0  0
 19 27  1  0  0  0  0
 19 36  1  6  0  0  0
 20 21  1  0  0  0  0
 20 24  1  0  0  0  0
 20 37  1  6  0  0  0
 21 22  2  0  0  0  0
 21 23  1  0  0  0  0
 23 38  1  0  0  0  0
 24 25  1  0  0  0  0
 24 29  1  0  0  0  0
 24 39  1  6  0  0  0
 25 26  1  0  0  0  0
 25 40  1  0  0  0  0
 25 41  1  0  0  0  0
 26 27  1  0  0  0  0
 26 42  1  0  0  0  0
 26 43  1  0  0  0  0
 27 28  1  0  0  0  0
 27 44  1  1  0  0  0
 28 29  1  0  0  0  0
 28 45  1  0  0  0  0
 28 46  1  0  0  0  0
 29 47  1  0  0  0  0
 29 48  1  0  0  0  0
M  END
$$$$
