2D_structures\o54_MMV1593513_2D.pdb
 OpenBabel02282409193D

 51 51  0  0  1  0  0  0  0  0999 V2000
   -7.4910   -1.4930    0.0000 O   0  0  0  0  0  0  0  0  0  0  0  0
   -6.3760   -0.4890    0.0000 C   0  0  1  0  0  0  0  0  0  0  0  0
   -5.6720    0.8350    0.0000 C   0  0  1  0  0  0  0  0  0  0  0  0
   -7.0980    1.2990    0.0000 O   0  0  0  0  0  0  0  0  0  0  0  0
   -4.1730    0.8870    0.0000 C   0  0  1  0  0  0  0  0  0  0  0  0
   -3.3780   -0.3850    0.0000 N   0  0  0  0  0  0  0  0  0  0  0  0
   -1.8790   -0.3330    0.0000 C   0  0  0  0  0  0  0  0  0  0  0  0
   -0.3800   -0.2810    0.0000 C   0  0  0  0  0  0  0  0  0  0  0  0
    1.1190   -0.2290    0.0000 C   0  0  0  0  0  0  0  0  0  0  0  0
    2.6180   -0.1770    0.0000 C   0  0  0  0  0  0  0  0  0  0  0  0
    4.1180   -0.1250    0.0000 C   0  0  0  0  0  0  0  0  0  0  0  0
    5.6170   -0.0730    0.0000 C   0  0  0  0  0  0  0  0  0  0  0  0
    7.1160   -0.0210    0.0000 C   0  0  0  0  0  0  0  0  0  0  0  0
    8.6150    0.0310    0.0000 C   0  0  0  0  0  0  0  0  0  0  0  0
   10.1140    0.0830    0.0000 C   0  0  0  0  0  0  0  0  0  0  0  0
   -4.0820   -1.7090    0.0000 C   0  0  0  0  0  0  0  0  0  0  0  0
   -5.5820   -1.7610    0.0000 C   0  0  1  0  0  0  0  0  0  0  0  0
   -5.2700   -3.2290    0.0000 O   0  0  0  0  0  0  0  0  0  0  0  0
   -4.4840    2.3540    0.0000 C   0  0  0  0  0  0  0  0  0  0  0  0
   -4.7960    3.8220    0.0000 O   0  0  0  0  0  0  0  0  0  0  0  0
   -8.9180   -1.0290    0.0000 H   0  0  0  0  0  0  0  0  0  0  0  0
   -7.5580    0.4350    0.0000 H   0  0  0  0  0  0  0  0  0  0  0  0
   -5.6580    1.6320    0.0000 H   0  0  0  0  0  0  0  0  0  0  0  0
   -7.4100    2.7660    0.0000 H   0  0  0  0  0  0  0  0  0  0  0  0
   -2.8600    1.6140    0.0000 H   0  0  0  0  0  0  0  0  0  0  0  0
   -1.7480    1.1610    0.0000 H   0  0  0  0  0  0  0  0  0  0  0  0
   -1.6450   -1.8150    0.0000 H   0  0  0  0  0  0  0  0  0  0  0  0
   -0.4320    1.2180    0.0000 H   0  0  0  0  0  0  0  0  0  0  0  0
   -0.3280   -1.7800    0.0000 H   0  0  0  0  0  0  0  0  0  0  0  0
    1.1710   -1.7280    0.0000 H   0  0  0  0  0  0  0  0  0  0  0  0
    1.0670    1.2700    0.0000 H   0  0  0  0  0  0  0  0  0  0  0  0
    2.5660    1.3220    0.0000 H   0  0  0  0  0  0  0  0  0  0  0  0
    2.6700   -1.6760    0.0000 H   0  0  0  0  0  0  0  0  0  0  0  0
    4.1700   -1.6240    0.0000 H   0  0  0  0  0  0  0  0  0  0  0  0
    4.0660    1.3740    0.0000 H   0  0  0  0  0  0  0  0  0  0  0  0
    5.5650    1.4260    0.0000 H   0  0  0  0  0  0  0  0  0  0  0  0
    5.6690   -1.5720    0.0000 H   0  0  0  0  0  0  0  0  0  0  0  0
    7.1680   -1.5200    0.0000 H   0  0  0  0  0  0  0  0  0  0  0  0
    7.0640    1.4780    0.0000 H   0  0  0  0  0  0  0  0  0  0  0  0
    8.5630    1.5300    0.0000 H   0  0  0  0  0  0  0  0  0  0  0  0
    8.6670   -1.4680    0.0000 H   0  0  0  0  0  0  0  0  0  0  0  0
   11.6130    0.1350    0.0000 H   0  0  0  0  0  0  0  0  0  0  0  0
   10.1660   -1.4160    0.0000 H   0  0  0  0  0  0  0  0  0  0  0  0
   10.0620    1.5820    0.0000 H   0  0  0  0  0  0  0  0  0  0  0  0
   -2.7230   -2.3440    0.0000 H   0  0  0  0  0  0  0  0  0  0  0  0
   -4.2920   -3.1950    0.0000 H   0  0  0  0  0  0  0  0  0  0  0  0
   -6.9720   -2.3230    0.0000 H   0  0  0  0  0  0  0  0  0  0  0  0
   -6.3850   -4.2320    0.0000 H   0  0  0  0  0  0  0  0  0  0  0  0
   -3.0170    2.6660    0.0000 H   0  0  0  0  0  0  0  0  0  0  0  0
   -5.2780    2.2850    0.0000 H   0  0  0  0  0  0  0  0  0  0  0  0
   -3.6810    4.8250    0.0000 H   0  0  0  0  0  0  0  0  0  0  0  0
  1  2  1  0  0  0  0
  1 21  1  0  0  0  0
  2  3  1  0  0  0  0
  2 17  1  0  0  0  0
  2 22  1  6  0  0  0
  3  4  1  0  0  0  0
  3  5  1  0  0  0  0
  3 23  1  6  0  0  0
  4 24  1  0  0  0  0
  5  6  1  0  0  0  0
  5 19  1  0  0  0  0
  5 25  1  1  0  0  0
  6  7  1  0  0  0  0
  6 16  1  0  0  0  0
  7  8  1  0  0  0  0
  7 26  1  0  0  0  0
  7 27  1  0  0  0  0
  8  9  1  0  0  0  0
  8 28  1  0  0  0  0
  8 29  1  0  0  0  0
  9 10  1  0  0  0  0
  9 30  1  0  0  0  0
  9 31  1  0  0  0  0
 10 11  1  0  0  0  0
 10 32  1  0  0  0  0
 10 33  1  0  0  0  0
 11 12  1  0  0  0  0
 11 34  1  0  0  0  0
 11 35  1  0  0  0  0
 12 13  1  0  0  0  0
 12 36  1  0  0  0  0
 12 37  1  0  0  0  0
 13 14  1  0  0  0  0
 13 38  1  0  0  0  0
 13 39  1  0  0  0  0
 14 15  1  0  0  0  0
 14 40  1  0  0  0  0
 14 41  1  0  0  0  0
 15 42  1  0  0  0  0
 15 43  1  0  0  0  0
 15 44  1  0  0  0  0
 16 17  1  0  0  0  0
 16 45  1  0  0  0  0
 16 46  1  0  0  0  0
 17 18  1  0  0  0  0
 17 47  1  6  0  0  0
 18 48  1  0  0  0  0
 19 20  1  0  0  0  0
 19 49  1  0  0  0  0
 19 50  1  0  0  0  0
 20 51  1  0  0  0  0
M  END
$$$$
