2D_structures\o55_MMV1593511_2D.pdb
 OpenBabel02282409193D

 51 51  0  0  1  0  0  0  0  0999 V2000
   -0.3950   -4.2530    0.0000 C   0  0  0  0  0  0  0  0  0  0  0  0
    0.5470   -3.0850    0.0000 C   0  0  0  0  0  0  0  0  0  0  0  0
    1.4880   -1.9170    0.0000 C   0  0  0  0  0  0  0  0  0  0  0  0
    2.4290   -0.7490    0.0000 C   0  0  0  0  0  0  0  0  0  0  0  0
    3.3700    0.4190    0.0000 C   0  0  0  0  0  0  0  0  0  0  0  0
    0.3200   -0.9760    0.0000 C   0  0  1  0  0  0  0  0  0  0  0  0
    1.2610    0.1920    0.0000 N   0  0  0  0  0  0  0  0  0  0  0  0
    2.7430   -0.0390    0.0000 C   0  0  0  0  0  0  0  0  0  0  0  0
    3.4510   -1.3620    0.0000 O   0  0  0  0  0  0  0  0  0  0  0  0
    3.6840    1.1290    0.0000 C   0  0  0  0  0  0  0  0  0  0  0  0
   -0.8480   -0.0350    0.0000 C   0  0  1  0  0  0  0  0  0  0  0  0
    0.2100    1.0280    0.0000 C   0  0  1  0  0  0  0  0  0  0  0  0
    1.4660    1.8480    0.0000 O   0  0  0  0  0  0  0  0  0  0  0  0
   -0.4740    2.3630    0.0000 C   0  0  1  0  0  0  0  0  0  0  0  0
   -1.9550    2.1250    0.0000 C   0  0  0  0  0  0  0  0  0  0  0  0
   -2.1860    0.6430    0.0000 C   0  0  1  0  0  0  0  0  0  0  0  0
   -2.7200   -0.7590    0.0000 N   0  0  0  0  0  0  0  0  0  0  0  0
   -4.2010   -0.9970    0.0000 C   0  0  0  0  0  0  0  0  0  0  0  0
   -4.7360   -2.3990    0.0000 N   0  0  0  0  0  0  0  0  0  0  0  0
   -5.1480    0.1660    0.0000 N   0  0  0  0  0  0  0  0  0  0  0  0
   -0.8660    3.8110    0.0000 C   0  0  0  0  0  0  0  0  0  0  0  0
    0.1920    4.8740    0.0000 O   0  0  0  0  0  0  0  0  0  0  0  0
   -2.3160    4.1960    0.0000 O   0  0  0  0  0  0  0  0  0  0  0  0
   -1.3360   -5.4210    0.0000 H   0  0  0  0  0  0  0  0  0  0  0  0
    0.7730   -5.1950    0.0000 H   0  0  0  0  0  0  0  0  0  0  0  0
   -1.5620   -3.3120    0.0000 H   0  0  0  0  0  0  0  0  0  0  0  0
    1.1020   -3.6580    0.0000 H   0  0  0  0  0  0  0  0  0  0  0  0
    1.2240   -3.5060    0.0000 H   0  0  0  0  0  0  0  0  0  0  0  0
    2.6560   -2.8590    0.0000 H   0  0  0  0  0  0  0  0  0  0  0  0
    3.4740   -1.8260    0.0000 H   0  0  0  0  0  0  0  0  0  0  0  0
    1.6760    0.5480    0.0000 H   0  0  0  0  0  0  0  0  0  0  0  0
    4.6680    1.1710    0.0000 H   0  0  0  0  0  0  0  0  0  0  0  0
    4.4150   -0.6580    0.0000 H   0  0  0  0  0  0  0  0  0  0  0  0
    2.4650    1.6140    0.0000 H   0  0  0  0  0  0  0  0  0  0  0  0
   -0.6210   -2.1440    0.0000 H   0  0  0  0  0  0  0  0  0  0  0  0
    1.4410    1.6810    0.0000 H   0  0  0  0  0  0  0  0  0  0  0  0
    4.4760    2.4030    0.0000 H   0  0  0  0  0  0  0  0  0  0  0  0
    4.9580    0.3370    0.0000 H   0  0  0  0  0  0  0  0  0  0  0  0
    2.6400    2.2050    0.0000 H   0  0  0  0  0  0  0  0  0  0  0  0
   -1.5020   -1.3850    0.0000 H   0  0  0  0  0  0  0  0  0  0  0  0
    1.5110    0.2810    0.0000 H   0  0  0  0  0  0  0  0  0  0  0  0
    2.8770    1.3380    0.0000 H   0  0  0  0  0  0  0  0  0  0  0  0
    0.9250    2.9040    0.0000 H   0  0  0  0  0  0  0  0  0  0  0  0
   -3.4530    2.2000    0.0000 H   0  0  0  0  0  0  0  0  0  0  0  0
   -2.3970    3.5580    0.0000 H   0  0  0  0  0  0  0  0  0  0  0  0
   -3.6360    1.0280    0.0000 H   0  0  0  0  0  0  0  0  0  0  0  0
   -1.9230   -2.0290    0.0000 H   0  0  0  0  0  0  0  0  0  0  0  0
   -6.2170   -2.6370    0.0000 H   0  0  0  0  0  0  0  0  0  0  0  0
   -6.6290   -0.0720    0.0000 H   0  0  0  0  0  0  0  0  0  0  0  0
   -4.6140    1.5680    0.0000 H   0  0  0  0  0  0  0  0  0  0  0  0
   -2.7070    5.6440    0.0000 H   0  0  0  0  0  0  0  0  0  0  0  0
  1  2  1  0  0  0  0
  1 24  1  0  0  0  0
  1 25  1  0  0  0  0
  1 26  1  0  0  0  0
  2  3  1  0  0  0  0
  2 27  1  0  0  0  0
  2 28  1  0  0  0  0
  3  4  1  0  0  0  0
  3  6  1  0  0  0  0
  3 29  1  0  0  0  0
  4  5  1  0  0  0  0
  4 30  1  0  0  0  0
  4 31  1  0  0  0  0
  5 32  1  0  0  0  0
  5 33  1  0  0  0  0
  5 34  1  0  0  0  0
  6  7  1  0  0  0  0
  6 11  1  0  0  0  0
  6 35  1  1  0  0  0
  7  8  1  0  0  0  0
  7 36  1  0  0  0  0
  8  9  2  0  0  0  0
  8 10  1  0  0  0  0
 10 37  1  0  0  0  0
 10 38  1  0  0  0  0
 10 39  1  0  0  0  0
 11 12  1  0  0  0  0
 11 16  1  0  0  0  0
 11 40  1  1  0  0  0
 12 13  1  0  0  0  0
 12 14  1  0  0  0  0
 12 41  1  1  0  0  0
 13 42  1  0  0  0  0
 14 15  1  0  0  0  0
 14 21  1  0  0  0  0
 14 43  1  6  0  0  0
 15 16  1  0  0  0  0
 15 44  1  0  0  0  0
 15 45  1  0  0  0  0
 16 17  1  0  0  0  0
 16 46  1  1  0  0  0
 17 18  1  0  0  0  0
 17 47  1  0  0  0  0
 18 19  2  0  0  0  0
 18 20  1  0  0  0  0
 19 48  1  0  0  0  0
 20 49  1  0  0  0  0
 20 50  1  0  0  0  0
 21 22  2  0  0  0  0
 21 23  1  0  0  0  0
 23 51  1  0  0  0  0
M  END
$$$$
