2D_structures\o58_MMV002780_2D.pdb
 OpenBabel02282409193D

 53 57  0  0  1  0  0  0  0  0999 V2000
    2.7130    4.4170    0.0000 O   0  0  0  0  0  0  0  0  0  0  0  0
    1.6060    3.4050    0.0000 C   0  0  0  0  0  0  0  0  0  0  0  0
    0.1360    3.7050    0.0000 O   0  0  0  0  0  0  0  0  0  0  0  0
   -0.6040    2.4010    0.0000 C   0  0  1  0  0  0  0  0  0  0  0  0
   -1.5990    1.2780    0.0000 C   0  0  1  0  0  0  0  0  0  0  0  0
   -2.5310    2.4530    0.0000 N   0  0  0  0  0  0  0  0  0  0  0  0
   -4.0150    2.2320    0.0000 C   0  0  0  0  0  0  0  0  0  0  0  0
   -4.5660    0.8370    0.0000 C   0  0  0  0  0  0  0  0  0  0  0  0
   -3.6330   -0.3370    0.0000 C   0  0  0  0  0  0  0  0  0  0  0  0
   -4.1840   -1.7330    0.0000 C   0  0  0  0  0  0  0  0  0  0  0  0
   -3.2520   -2.9070    0.0000 C   0  0  0  0  0  0  0  0  0  0  0  0
   -1.7680   -2.6870    0.0000 C   0  0  0  0  0  0  0  0  0  0  0  0
   -1.2170   -1.2920    0.0000 C   0  0  0  0  0  0  0  0  0  0  0  0
   -2.1500   -0.1170    0.0000 C   0  0  0  0  0  0  0  0  0  0  0  0
    0.2670   -1.0710    0.0000 O   0  0  0  0  0  0  0  0  0  0  0  0
    1.1990   -2.2460    0.0000 C   0  0  0  0  0  0  0  0  0  0  0  0
   -1.1000   -4.0300    0.0000 O   0  0  0  0  0  0  0  0  0  0  0  0
   -2.1710   -5.0800    0.0000 C   0  0  0  0  0  0  0  0  0  0  0  0
   -3.5010   -4.3860    0.0000 O   0  0  0  0  0  0  0  0  0  0  0  0
   -1.9800    3.8480    0.0000 C   0  0  0  0  0  0  0  0  0  0  0  0
    0.4090    1.2940    0.0000 C   0  0  0  0  0  0  0  0  0  0  0  0
    0.2640   -0.1990    0.0000 C   0  0  0  0  0  0  0  0  0  0  0  0
    1.4840   -1.0710    0.0000 C   0  0  0  0  0  0  0  0  0  0  0  0
    2.8490   -0.4510    0.0000 C   0  0  0  0  0  0  0  0  0  0  0  0
    2.9950    1.0420    0.0000 C   0  0  0  0  0  0  0  0  0  0  0  0
    1.7740    1.9150    0.0000 C   0  0  0  0  0  0  0  0  0  0  0  0
    4.3600    1.6630    0.0000 O   0  0  0  0  0  0  0  0  0  0  0  0
    5.5800    0.7910    0.0000 C   0  0  0  0  0  0  0  0  0  0  0  0
    4.0700   -1.3230    0.0000 O   0  0  0  0  0  0  0  0  0  0  0  0
    5.4350   -0.7020    0.0000 C   0  0  0  0  0  0  0  0  0  0  0  0
   -1.1210    3.0070    0.0000 H   0  0  0  0  0  0  0  0  0  0  0  0
   -0.3200    0.4930    0.0000 H   0  0  0  0  0  0  0  0  0  0  0  0
   -5.4850    2.5330    0.0000 H   0  0  0  0  0  0  0  0  0  0  0  0
   -4.1580    3.7260    0.0000 H   0  0  0  0  0  0  0  0  0  0  0  0
   -5.5610   -0.2850    0.0000 H   0  0  0  0  0  0  0  0  0  0  0  0
   -5.8440    1.6220    0.0000 H   0  0  0  0  0  0  0  0  0  0  0  0
   -5.6680   -1.9530    0.0000 H   0  0  0  0  0  0  0  0  0  0  0  0
    2.1320   -3.4210    0.0000 H   0  0  0  0  0  0  0  0  0  0  0  0
    2.3740   -1.3140    0.0000 H   0  0  0  0  0  0  0  0  0  0  0  0
    0.0250   -3.1790    0.0000 H   0  0  0  0  0  0  0  0  0  0  0  0
   -1.0140   -6.0360    0.0000 H   0  0  0  0  0  0  0  0  0  0  0  0
   -3.0000   -6.3300    0.0000 H   0  0  0  0  0  0  0  0  0  0  0  0
   -1.4290    5.2430    0.0000 H   0  0  0  0  0  0  0  0  0  0  0  0
   -1.1020    3.7320    0.0000 H   0  0  0  0  0  0  0  0  0  0  0  0
   -3.2980    4.5650    0.0000 H   0  0  0  0  0  0  0  0  0  0  0  0
   -0.9110   -1.1320    0.0000 H   0  0  0  0  0  0  0  0  0  0  0  0
    1.7040   -2.5550    0.0000 H   0  0  0  0  0  0  0  0  0  0  0  0
    6.8980    0.0740    0.0000 H   0  0  0  0  0  0  0  0  0  0  0  0
    6.4530    2.0110    0.0000 H   0  0  0  0  0  0  0  0  0  0  0  0
    5.0300   -0.6040    0.0000 H   0  0  0  0  0  0  0  0  0  0  0  0
    6.8660   -0.2520    0.0000 H   0  0  0  0  0  0  0  0  0  0  0  0
    6.0560   -2.0670    0.0000 H   0  0  0  0  0  0  0  0  0  0  0  0
    4.5030    0.4730    0.0000 H   0  0  0  0  0  0  0  0  0  0  0  0
  1  2  2  0  0  0  0
  2  3  1  0  0  0  0
  2 26  1  0  0  0  0
  3  4  1  0  0  0  0
  4  5  1  0  0  0  0
  4 21  1  0  0  0  0
  4 31  1  1  0  0  0
  5  6  1  0  0  0  0
  5 14  1  0  0  0  0
  5 32  1  1  0  0  0
  6  7  1  0  0  0  0
  6 20  1  0  0  0  0
  7  8  1  0  0  0  0
  7 33  1  0  0  0  0
  7 34  1  0  0  0  0
  8  9  1  0  0  0  0
  8 35  1  0  0  0  0
  8 36  1  0  0  0  0
  9 10  2  0  0  0  0
  9 14  1  0  0  0  0
 10 11  1  0  0  0  0
 10 37  1  0  0  0  0
 11 12  2  0  0  0  0
 11 19  1  0  0  0  0
 12 13  1  0  0  0  0
 12 17  1  0  0  0  0
 13 14  2  0  0  0  0
 13 15  1  0  0  0  0
 15 16  1  0  0  0  0
 16 38  1  0  0  0  0
 16 39  1  0  0  0  0
 16 40  1  0  0  0  0
 17 18  1  0  0  0  0
 18 19  1  0  0  0  0
 18 41  1  0  0  0  0
 18 42  1  0  0  0  0
 20 43  1  0  0  0  0
 20 44  1  0  0  0  0
 20 45  1  0  0  0  0
 21 22  2  0  0  0  0
 21 26  1  0  0  0  0
 22 23  1  0  0  0  0
 22 46  1  0  0  0  0
 23 24  2  0  0  0  0
 23 47  1  0  0  0  0
 24 25  1  0  0  0  0
 24 29  1  0  0  0  0
 25 26  2  0  0  0  0
 25 27  1  0  0  0  0
 27 28  1  0  0  0  0
 28 48  1  0  0  0  0
 28 49  1  0  0  0  0
 28 50  1  0  0  0  0
 29 30  1  0  0  0  0
 30 51  1  0  0  0  0
 30 52  1  0  0  0  0
 30 53  1  0  0  0  0
M  END
$$$$
