2D_structures\o5_MMV1580503_2D.pdb
 OpenBabel02282409193D

 65 69  0  0  1  0  0  0  0  0999 V2000
    0.3270   -2.5150    0.0000 O   0  0  0  0  0  0  0  0  0  0  0  0
    1.8040   -2.2540    0.0000 C   0  0  0  0  0  0  0  0  0  0  0  0
    2.3160   -0.8440    0.0000 C   0  0  0  0  0  0  0  0  0  0  0  0
    3.7930   -0.5820    0.0000 C   0  0  0  0  0  0  0  0  0  0  0  0
    4.5090    0.7360    0.0000 N   0  0  0  0  0  0  0  0  0  0  0  0
    3.9260    2.1170    0.0000 C   0  0  0  0  0  0  0  0  0  0  0  0
    2.4810    2.5230    0.0000 C   0  0  0  0  0  0  0  0  0  0  0  0
    1.2640    1.6460    0.0000 N   0  0  0  0  0  0  0  0  0  0  0  0
    1.1910    0.1480    0.0000 C   0  0  1  0  0  0  0  0  0  0  0  0
   -0.2540    0.5530    0.0000 C   0  0  0  0  0  0  0  0  0  0  0  0
   -0.6250    2.0060    0.0000 C   0  0  0  0  0  0  0  0  0  0  0  0
   -2.0690    2.4110    0.0000 C   0  0  0  0  0  0  0  0  0  0  0  0
   -3.1420    1.3630    0.0000 C   0  0  0  0  0  0  0  0  0  0  0  0
   -4.5870    1.7680    0.0000 O   0  0  0  0  0  0  0  0  0  0  0  0
   -5.6590    0.7200    0.0000 C   0  0  0  0  0  0  0  0  0  0  0  0
   -6.7320   -0.3280    0.0000 C   0  0  0  0  0  0  0  0  0  0  0  0
   -8.1770    0.0770    0.0000 C   0  0  0  0  0  0  0  0  0  0  0  0
   -9.2500   -0.9710    0.0000 C   0  0  0  0  0  0  0  0  0  0  0  0
   -8.8780   -2.4240    0.0000 C   0  0  0  0  0  0  0  0  0  0  0  0
   -7.4340   -2.8300    0.0000 C   0  0  0  0  0  0  0  0  0  0  0  0
   -6.3610   -1.7810    0.0000 C   0  0  0  0  0  0  0  0  0  0  0  0
   -2.7710   -0.0900    0.0000 C   0  0  0  0  0  0  0  0  0  0  0  0
   -1.3270   -0.4950    0.0000 C   0  0  0  0  0  0  0  0  0  0  0  0
   -0.0540    2.3620    0.0000 C   0  0  0  0  0  0  0  0  0  0  0  0
   -1.3330    1.5790    0.0000 O   0  0  0  0  0  0  0  0  0  0  0  0
   -0.0920    3.8620    0.0000 C   0  0  0  0  0  0  0  0  0  0  0  0
    2.1100    3.9760    0.0000 C   0  0  0  0  0  0  0  0  0  0  0  0
    3.1830    5.0240    0.0000 C   0  0  0  0  0  0  0  0  0  0  0  0
    4.6270    4.6190    0.0000 C   0  0  0  0  0  0  0  0  0  0  0  0
    4.9990    3.1660    0.0000 C   0  0  0  0  0  0  0  0  0  0  0  0
    4.7580   -1.7310    0.0000 C   0  0  0  0  0  0  0  0  0  0  0  0
    4.2460   -3.1400    0.0000 C   0  0  0  0  0  0  0  0  0  0  0  0
    2.7690   -3.4020    0.0000 C   0  0  0  0  0  0  0  0  0  0  0  0
    5.7240   -3.4000    0.0000 C   0  0  0  0  0  0  0  0  0  0  0  0
    4.2470   -4.6400    0.0000 C   0  0  0  0  0  0  0  0  0  0  0  0
    6.0080    0.6620    0.0000 H   0  0  0  0  0  0  0  0  0  0  0  0
    0.4740   -1.1700    0.0000 H   0  0  0  0  0  0  0  0  0  0  0  0
    0.4480    3.0540    0.0000 H   0  0  0  0  0  0  0  0  0  0  0  0
   -2.6150    3.8090    0.0000 H   0  0  0  0  0  0  0  0  0  0  0  0
   -4.6110   -0.3530    0.0000 H   0  0  0  0  0  0  0  0  0  0  0  0
   -6.7080    1.7930    0.0000 H   0  0  0  0  0  0  0  0  0  0  0  0
   -8.5480    1.5300    0.0000 H   0  0  0  0  0  0  0  0  0  0  0  0
  -10.6940   -0.5660    0.0000 H   0  0  0  0  0  0  0  0  0  0  0  0
   -9.9510   -3.4730    0.0000 H   0  0  0  0  0  0  0  0  0  0  0  0
   -7.0630   -4.2830    0.0000 H   0  0  0  0  0  0  0  0  0  0  0  0
   -4.9170   -2.1870    0.0000 H   0  0  0  0  0  0  0  0  0  0  0  0
   -3.8440   -1.1380    0.0000 H   0  0  0  0  0  0  0  0  0  0  0  0
   -0.9550   -1.9490    0.0000 H   0  0  0  0  0  0  0  0  0  0  0  0
   -0.1310    5.3610    0.0000 H   0  0  0  0  0  0  0  0  0  0  0  0
   -1.5850    4.0060    0.0000 H   0  0  0  0  0  0  0  0  0  0  0  0
    1.2940    4.4350    0.0000 H   0  0  0  0  0  0  0  0  0  0  0  0
    0.7260    4.5540    0.0000 H   0  0  0  0  0  0  0  0  0  0  0  0
    2.8120    6.4770    0.0000 H   0  0  0  0  0  0  0  0  0  0  0  0
    5.7000    5.6670    0.0000 H   0  0  0  0  0  0  0  0  0  0  0  0
    6.4430    2.7610    0.0000 H   0  0  0  0  0  0  0  0  0  0  0  0
    5.7210   -0.5810    0.0000 H   0  0  0  0  0  0  0  0  0  0  0  0
    6.1390   -2.3150    0.0000 H   0  0  0  0  0  0  0  0  0  0  0  0
    3.1080   -4.8630    0.0000 H   0  0  0  0  0  0  0  0  0  0  0  0
    1.4710   -4.1530    0.0000 H   0  0  0  0  0  0  0  0  0  0  0  0
    7.2010   -3.6590    0.0000 H   0  0  0  0  0  0  0  0  0  0  0  0
    5.6460   -4.8980    0.0000 H   0  0  0  0  0  0  0  0  0  0  0  0
    6.1610   -1.9650    0.0000 H   0  0  0  0  0  0  0  0  0  0  0  0
    4.2480   -6.1400    0.0000 H   0  0  0  0  0  0  0  0  0  0  0  0
    2.7590   -4.8240    0.0000 H   0  0  0  0  0  0  0  0  0  0  0  0
    5.7360   -4.8220    0.0000 H   0  0  0  0  0  0  0  0  0  0  0  0
  1  2  2  0  0  0  0
  2  3  1  0  0  0  0
  2 33  1  0  0  0  0
  3  4  2  0  0  0  0
  3  9  1  0  0  0  0
  4  5  1  0  0  0  0
  4 31  1  0  0  0  0
  5  6  1  0  0  0  0
  5 36  1  0  0  0  0
  6  7  2  0  0  0  0
  6 30  1  0  0  0  0
  7  8  1  0  0  0  0
  7 27  1  0  0  0  0
  8  9  1  0  0  0  0
  8 24  1  0  0  0  0
  9 10  1  0  0  0  0
  9 37  1  1  0  0  0
 10 11  2  0  0  0  0
 10 23  1  0  0  0  0
 11 12  1  0  0  0  0
 11 38  1  0  0  0  0
 12 13  2  0  0  0  0
 12 39  1  0  0  0  0
 13 14  1  0  0  0  0
 13 22  1  0  0  0  0
 14 15  1  0  0  0  0
 15 16  1  0  0  0  0
 15 40  1  0  0  0  0
 15 41  1  0  0  0  0
 16 17  2  0  0  0  0
 16 21  1  0  0  0  0
 17 18  1  0  0  0  0
 17 42  1  0  0  0  0
 18 19  2  0  0  0  0
 18 43  1  0  0  0  0
 19 20  1  0  0  0  0
 19 44  1  0  0  0  0
 20 21  2  0  0  0  0
 20 45  1  0  0  0  0
 21 46  1  0  0  0  0
 22 23  2  0  0  0  0
 22 47  1  0  0  0  0
 23 48  1  0  0  0  0
 24 25  2  0  0  0  0
 24 26  1  0  0  0  0
 26 49  1  0  0  0  0
 26 50  1  0  0  0  0
 26 51  1  0  0  0  0
 27 28  2  0  0  0  0
 27 52  1  0  0  0  0
 28 29  1  0  0  0  0
 28 53  1  0  0  0  0
 29 30  2  0  0  0  0
 29 54  1  0  0  0  0
 30 55  1  0  0  0  0
 31 32  1  0  0  0  0
 31 56  1  0  0  0  0
 31 57  1  0  0  0  0
 32 33  1  0  0  0  0
 32 34  1  0  0  0  0
 32 35  1  0  0  0  0
 33 58  1  0  0  0  0
 33 59  1  0  0  0  0
 34 60  1  0  0  0  0
 34 61  1  0  0  0  0
 34 62  1  0  0  0  0
 35 63  1  0  0  0  0
 35 64  1  0  0  0  0
 35 65  1  0  0  0  0
M  END
$$$$
