2D_structures\o60_MMV010036_2D.pdb
 OpenBabel02282409193D

 49 51  0  0  0  0  0  0  0  0999 V2000
    8.8320    2.5550    0.0000 O   0  0  0  0  0  0  0  0  0  0  0  0
    8.7430    1.0570    0.0000 C   0  0  0  0  0  0  0  0  0  0  0  0
    9.9960    0.2320    0.0000 N   0  0  0  0  0  0  0  0  0  0  0  0
    9.9080   -1.2650    0.0000 O   0  0  0  0  0  0  0  0  0  0  0  0
    7.4020    0.3850    0.0000 C   0  0  0  0  0  0  0  0  0  0  0  0
    6.1500    1.2100    0.0000 C   0  0  0  0  0  0  0  0  0  0  0  0
    4.8090    0.5380    0.0000 C   0  0  0  0  0  0  0  0  0  0  0  0
    4.7210   -0.9590    0.0000 C   0  0  0  0  0  0  0  0  0  0  0  0
    3.3800   -1.6310    0.0000 C   0  0  0  0  0  0  0  0  0  0  0  0
    2.1270   -0.8060    0.0000 C   0  0  0  0  0  0  0  0  0  0  0  0
    0.7860   -1.4780    0.0000 C   0  0  0  0  0  0  0  0  0  0  0  0
   -0.5550   -2.1500    0.0000 N   0  0  0  0  0  0  0  0  0  0  0  0
   -1.8080   -1.3250    0.0000 C   0  0  0  0  0  0  0  0  0  0  0  0
   -3.0600   -0.5000    0.0000 C   0  0  0  0  0  0  0  0  0  0  0  0
   -4.3130    0.3250    0.0000 C   0  0  0  0  0  0  0  0  0  0  0  0
   -4.3810    1.8240    0.0000 C   0  0  0  0  0  0  0  0  0  0  0  0
   -5.8280    2.2210    0.0000 N   0  0  0  0  0  0  0  0  0  0  0  0
   -6.6530    0.9690    0.0000 C   0  0  0  0  0  0  0  0  0  0  0  0
   -5.7170   -0.2030    0.0000 C   0  0  0  0  0  0  0  0  0  0  0  0
   -6.2630   -1.6000    0.0000 C   0  0  0  0  0  0  0  0  0  0  0  0
   -7.7460   -1.8250    0.0000 C   0  0  0  0  0  0  0  0  0  0  0  0
   -8.6830   -0.6530    0.0000 C   0  0  0  0  0  0  0  0  0  0  0  0
   -8.1360    0.7440    0.0000 C   0  0  0  0  0  0  0  0  0  0  0  0
   -3.2090    2.7600    0.0000 C   0  0  0  0  0  0  0  0  0  0  0  0
    2.2150    0.6910    0.0000 C   0  0  0  0  0  0  0  0  0  0  0  0
    3.5560    1.3640    0.0000 C   0  0  0  0  0  0  0  0  0  0  0  0
   11.3370    0.9040    0.0000 H   0  0  0  0  0  0  0  0  0  0  0  0
   11.1600   -2.0900    0.0000 H   0  0  0  0  0  0  0  0  0  0  0  0
    7.3140   -1.1120    0.0000 H   0  0  0  0  0  0  0  0  0  0  0  0
    6.2380    2.7080    0.0000 H   0  0  0  0  0  0  0  0  0  0  0  0
    5.9730   -1.7840    0.0000 H   0  0  0  0  0  0  0  0  0  0  0  0
    3.2910   -3.1290    0.0000 H   0  0  0  0  0  0  0  0  0  0  0  0
    1.4580   -2.8190    0.0000 H   0  0  0  0  0  0  0  0  0  0  0  0
    0.1140   -0.1370    0.0000 H   0  0  0  0  0  0  0  0  0  0  0  0
   -0.6430   -3.6480    0.0000 H   0  0  0  0  0  0  0  0  0  0  0  0
   -2.6330   -2.5780    0.0000 H   0  0  0  0  0  0  0  0  0  0  0  0
   -0.9820   -0.0730    0.0000 H   0  0  0  0  0  0  0  0  0  0  0  0
   -2.0880    0.6430    0.0000 H   0  0  0  0  0  0  0  0  0  0  0  0
   -3.8850   -1.7530    0.0000 H   0  0  0  0  0  0  0  0  0  0  0  0
   -6.3560    3.6250    0.0000 H   0  0  0  0  0  0  0  0  0  0  0  0
   -5.3270   -2.7720    0.0000 H   0  0  0  0  0  0  0  0  0  0  0  0
   -8.2930   -3.2220    0.0000 H   0  0  0  0  0  0  0  0  0  0  0  0
  -10.1660   -0.8780    0.0000 H   0  0  0  0  0  0  0  0  0  0  0  0
   -9.0720    1.9160    0.0000 H   0  0  0  0  0  0  0  0  0  0  0  0
   -2.1370    1.7110    0.0000 H   0  0  0  0  0  0  0  0  0  0  0  0
   -4.1460    3.9320    0.0000 H   0  0  0  0  0  0  0  0  0  0  0  0
   -2.0380    3.6960    0.0000 H   0  0  0  0  0  0  0  0  0  0  0  0
    0.9630    1.5170    0.0000 H   0  0  0  0  0  0  0  0  0  0  0  0
    3.6450    2.8610    0.0000 H   0  0  0  0  0  0  0  0  0  0  0  0
  1  2  2  0  0  0  0
  2  3  1  0  0  0  0
  2  5  1  0  0  0  0
  3  4  1  0  0  0  0
  3 27  1  0  0  0  0
  4 28  1  0  0  0  0
  5  6  2  0  0  0  0
  5 29  1  0  0  0  0
  6  7  1  0  0  0  0
  6 30  1  0  0  0  0
  7  8  2  0  0  0  0
  7 26  1  0  0  0  0
  8  9  1  0  0  0  0
  8 31  1  0  0  0  0
  9 10  2  0  0  0  0
  9 32  1  0  0  0  0
 10 11  1  0  0  0  0
 10 25  1  0  0  0  0
 11 12  1  0  0  0  0
 11 33  1  0  0  0  0
 11 34  1  0  0  0  0
 12 13  1  0  0  0  0
 12 35  1  0  0  0  0
 13 14  1  0  0  0  0
 13 36  1  0  0  0  0
 13 37  1  0  0  0  0
 14 15  1  0  0  0  0
 14 38  1  0  0  0  0
 14 39  1  0  0  0  0
 15 16  2  0  0  0  0
 15 19  1  0  0  0  0
 16 17  1  0  0  0  0
 16 24  1  0  0  0  0
 17 18  1  0  0  0  0
 17 40  1  0  0  0  0
 18 19  2  0  0  0  0
 18 23  1  0  0  0  0
 19 20  1  0  0  0  0
 20 21  2  0  0  0  0
 20 41  1  0  0  0  0
 21 22  1  0  0  0  0
 21 42  1  0  0  0  0
 22 23  2  0  0  0  0
 22 43  1  0  0  0  0
 23 44  1  0  0  0  0
 24 45  1  0  0  0  0
 24 46  1  0  0  0  0
 24 47  1  0  0  0  0
 25 26  2  0  0  0  0
 25 48  1  0  0  0  0
 26 49  1  0  0  0  0
M  END
$$$$
