2D_structures\o7_MMV1165877_2D.pdb
 OpenBabel02282409193D

 45 49  0  0  1  0  0  0  0  0999 V2000
    7.1540    0.0930    0.0000 F   0  0  0  0  0  0  0  0  0  0  0  0
    5.6540    0.1280    0.0000 C   0  0  0  0  0  0  0  0  0  0  0  0
    4.8740   -1.1520    0.0000 C   0  0  0  0  0  0  0  0  0  0  0  0
    3.3740   -1.1170    0.0000 C   0  0  0  0  0  0  0  0  0  0  0  0
    2.6550    0.2000    0.0000 C   0  0  0  0  0  0  0  0  0  0  0  0
    1.1560    0.2350    0.0000 C   0  0  0  0  0  0  0  0  0  0  0  0
    0.4370    1.5510    0.0000 O   0  0  0  0  0  0  0  0  0  0  0  0
    0.3750   -1.0460    0.0000 N   0  0  0  0  0  0  0  0  0  0  0  0
   -1.1200   -1.1670    0.0000 C   0  0  1  0  0  0  0  0  0  0  0  0
   -1.4670   -2.6270    0.0000 N   0  0  0  0  0  0  0  0  0  0  0  0
   -2.9620   -2.7480    0.0000 C   0  0  0  0  0  0  0  0  0  0  0  0
   -3.7420   -4.0290    0.0000 O   0  0  0  0  0  0  0  0  0  0  0  0
   -3.5390   -1.3640    0.0000 C   0  0  0  0  0  0  0  0  0  0  0  0
   -2.4010   -0.3870    0.0000 C   0  0  0  0  0  0  0  0  0  0  0  0
   -2.6780    1.0870    0.0000 C   0  0  0  0  0  0  0  0  0  0  0  0
   -4.0930    1.5850    0.0000 C   0  0  0  0  0  0  0  0  0  0  0  0
   -5.2310    0.6080    0.0000 C   0  0  0  0  0  0  0  0  0  0  0  0
   -4.9540   -0.8670    0.0000 C   0  0  0  0  0  0  0  0  0  0  0  0
   -0.1860   -3.4070    0.0000 C   0  0  0  0  0  0  0  0  0  0  0  0
    0.9530   -2.4300    0.0000 C   0  0  0  0  0  0  0  0  0  0  0  0
   -0.7740    0.2920    0.0000 C   0  0  0  0  0  0  0  0  0  0  0  0
   -1.8640    1.3220    0.0000 C   0  0  0  0  0  0  0  0  0  0  0  0
   -1.5180    2.7810    0.0000 C   0  0  0  0  0  0  0  0  0  0  0  0
   -0.0810    3.2110    0.0000 C   0  0  0  0  0  0  0  0  0  0  0  0
    1.0100    2.1810    0.0000 C   0  0  0  0  0  0  0  0  0  0  0  0
    0.6640    0.7220    0.0000 C   0  0  0  0  0  0  0  0  0  0  0  0
    3.4360    1.4800    0.0000 C   0  0  0  0  0  0  0  0  0  0  0  0
    4.9350    1.4450    0.0000 C   0  0  0  0  0  0  0  0  0  0  0  0
    5.5930   -2.4690    0.0000 H   0  0  0  0  0  0  0  0  0  0  0  0
    2.4430   -2.2930    0.0000 H   0  0  0  0  0  0  0  0  0  0  0  0
   -1.8100    2.3110    0.0000 H   0  0  0  0  0  0  0  0  0  0  0  0
   -4.3700    3.0590    0.0000 H   0  0  0  0  0  0  0  0  0  0  0  0
   -6.6470    1.1050    0.0000 H   0  0  0  0  0  0  0  0  0  0  0  0
   -6.0930   -1.8440    0.0000 H   0  0  0  0  0  0  0  0  0  0  0  0
   -1.0960   -4.6000    0.0000 H   0  0  0  0  0  0  0  0  0  0  0  0
    0.9050   -4.4370    0.0000 H   0  0  0  0  0  0  0  0  0  0  0  0
    1.8050   -3.6640    0.0000 H   0  0  0  0  0  0  0  0  0  0  0  0
    2.1710   -1.5560    0.0000 H   0  0  0  0  0  0  0  0  0  0  0  0
   -3.3630    1.2530    0.0000 H   0  0  0  0  0  0  0  0  0  0  0  0
   -2.6080    3.8110    0.0000 H   0  0  0  0  0  0  0  0  0  0  0  0
    0.2660    4.6700    0.0000 H   0  0  0  0  0  0  0  0  0  0  0  0
    2.3840    2.7830    0.0000 H   0  0  0  0  0  0  0  0  0  0  0  0
    1.7540   -0.3080    0.0000 H   0  0  0  0  0  0  0  0  0  0  0  0
    2.8820    2.8750    0.0000 H   0  0  0  0  0  0  0  0  0  0  0  0
    5.7160    2.7260    0.0000 H   0  0  0  0  0  0  0  0  0  0  0  0
  1  2  1  0  0  0  0
  2  3  2  0  0  0  0
  2 28  1  0  0  0  0
  3  4  1  0  0  0  0
  3 29  1  0  0  0  0
  4  5  2  0  0  0  0
  4 30  1  0  0  0  0
  5  6  1  0  0  0  0
  5 27  1  0  0  0  0
  6  7  2  0  0  0  0
  6  8  1  0  0  0  0
  8  9  1  0  0  0  0
  8 20  1  0  0  0  0
  9 10  1  0  0  0  0
  9 14  1  0  0  0  0
  9 21  1  6  0  0  0
 10 11  1  0  0  0  0
 10 19  1  0  0  0  0
 11 12  2  0  0  0  0
 11 13  1  0  0  0  0
 13 14  2  0  0  0  0
 13 18  1  0  0  0  0
 14 15  1  0  0  0  0
 15 16  2  0  0  0  0
 15 31  1  0  0  0  0
 16 17  1  0  0  0  0
 16 32  1  0  0  0  0
 17 18  2  0  0  0  0
 17 33  1  0  0  0  0
 18 34  1  0  0  0  0
 19 20  1  0  0  0  0
 19 35  1  0  0  0  0
 19 36  1  0  0  0  0
 20 37  1  0  0  0  0
 20 38  1  0  0  0  0
 21 22  2  0  0  0  0
 21 26  1  0  0  0  0
 22 23  1  0  0  0  0
 22 39  1  0  0  0  0
 23 24  2  0  0  0  0
 23 40  1  0  0  0  0
 24 25  1  0  0  0  0
 24 41  1  0  0  0  0
 25 26  2  0  0  0  0
 25 42  1  0  0  0  0
 26 43  1  0  0  0  0
 27 28  2  0  0  0  0
 27 44  1  0  0  0  0
 28 45  1  0  0  0  0
M  END
$$$$
