2D_structures\o9_MMV1580495_2D.pdb
 OpenBabel02282409193D

 29 30  0  0  1  0  0  0  0  0999 V2000
   -1.3360   -3.2300    0.0000 O   0  0  0  0  0  0  0  0  0  0  0  0
   -1.9760   -1.8730    0.0000 C   0  0  0  0  0  0  0  0  0  0  0  0
   -3.4710   -1.7490    0.0000 N   0  0  0  0  0  0  0  0  0  0  0  0
   -4.1110   -0.3930    0.0000 C   0  0  0  0  0  0  0  0  0  0  0  0
   -5.6060   -0.2690    0.0000 N   0  0  0  0  0  0  0  0  0  0  0  0
   -3.2560    0.8400    0.0000 C   0  0  0  0  0  0  0  0  0  0  0  0
   -1.7610    0.7160    0.0000 N   0  0  0  0  0  0  0  0  0  0  0  0
   -1.1210   -0.6400    0.0000 N   0  0  0  0  0  0  0  0  0  0  0  0
    0.3740   -0.7640    0.0000 C   0  0  1  0  0  0  0  0  0  0  0  0
    1.8100   -1.1960    0.0000 O   0  0  0  0  0  0  0  0  0  0  0  0
    2.6650    0.0370    0.0000 C   0  0  1  0  0  0  0  0  0  0  0  0
    3.8010   -0.9420    0.0000 C   0  0  0  0  0  0  0  0  0  0  0  0
    4.9380   -1.9210    0.0000 O   0  0  0  0  0  0  0  0  0  0  0  0
    1.7570    1.2300    0.0000 C   0  0  1  0  0  0  0  0  0  0  0  0
    0.3410    0.7350    0.0000 C   0  0  1  0  0  0  0  0  0  0  0  0
   -0.0040    2.1950    0.0000 O   0  0  0  0  0  0  0  0  0  0  0  0
    3.0390    2.0090    0.0000 O   0  0  0  0  0  0  0  0  0  0  0  0
   -6.2460    1.0880    0.0000 H   0  0  0  0  0  0  0  0  0  0  0  0
   -6.4610   -1.5020    0.0000 H   0  0  0  0  0  0  0  0  0  0  0  0
   -3.8970    2.1960    0.0000 H   0  0  0  0  0  0  0  0  0  0  0  0
    0.0940   -2.2380    0.0000 H   0  0  0  0  0  0  0  0  0  0  0  0
    3.7570    1.0650    0.0000 H   0  0  0  0  0  0  0  0  0  0  0  0
    4.7800    0.1940    0.0000 H   0  0  0  0  0  0  0  0  0  0  0  0
    2.8230   -2.0790    0.0000 H   0  0  0  0  0  0  0  0  0  0  0  0
    4.6590   -3.3950    0.0000 H   0  0  0  0  0  0  0  0  0  0  0  0
    1.3760    2.3840    0.0000 H   0  0  0  0  0  0  0  0  0  0  0  0
   -0.7450    0.8640    0.0000 H   0  0  0  0  0  0  0  0  0  0  0  0
    0.7730    3.1300    0.0000 H   0  0  0  0  0  0  0  0  0  0  0  0
    3.0060    3.5080    0.0000 H   0  0  0  0  0  0  0  0  0  0  0  0
  1  2  2  0  0  0  0
  2  3  1  0  0  0  0
  2  8  1  0  0  0  0
  3  4  2  0  0  0  0
  4  5  1  0  0  0  0
  4  6  1  0  0  0  0
  5 18  1  0  0  0  0
  5 19  1  0  0  0  0
  6  7  2  0  0  0  0
  6 20  1  0  0  0  0
  7  8  1  0  0  0  0
  8  9  1  0  0  0  0
  9 10  1  0  0  0  0
  9 15  1  0  0  0  0
  9 21  1  1  0  0  0
 10 11  1  0  0  0  0
 11 12  1  0  0  0  0
 11 14  1  0  0  0  0
 11 22  1  1  0  0  0
 12 13  1  0  0  0  0
 12 23  1  0  0  0  0
 12 24  1  0  0  0  0
 13 25  1  0  0  0  0
 14 15  1  0  0  0  0
 14 17  1  0  0  0  0
 14 26  1  6  0  0  0
 15 16  1  0  0  0  0
 15 27  1  1  0  0  0
 16 28  1  0  0  0  0
 17 29  1  0  0  0  0
M  END
$$$$
