2D_structures\o10_MMV002505_2D.pdb
 OpenBabel02282413353D

 48 51  0  0  1  0  0  0  0  0999 V2000
    2.1460   -2.7950    0.0000 S   0  0  0  0  0  0  0  0  0  0  0  0
    2.6090   -1.3680    0.0000 C   0  0  0  0  0  0  0  0  0  0  0  0
    1.7810   -0.1170    0.0000 C   0  0  0  0  0  0  0  0  0  0  0  0
    2.4510    1.2250    0.0000 C   0  0  0  0  0  0  0  0  0  0  0  0
    3.9480    1.3160    0.0000 C   0  0  0  0  0  0  0  0  0  0  0  0
    4.6180    2.6580    0.0000 S   0  0  0  0  0  0  0  0  0  0  0  0
    6.1160    2.7490    0.0000 C   0  0  0  0  0  0  0  0  0  0  0  0
    4.7760    0.0650    0.0000 C   0  0  0  0  0  0  0  0  0  0  0  0
    4.1060   -1.2770    0.0000 C   0  0  0  0  0  0  0  0  0  0  0  0
    0.2870    0.0170    0.0000 C   0  0  1  0  0  0  0  0  0  0  0  0
   -1.0010    0.7850    0.0000 N   0  0  0  0  0  0  0  0  0  0  0  0
   -0.9800    2.2850    0.0000 C   0  0  0  0  0  0  0  0  0  0  0  0
   -2.2680    3.0530    0.0000 C   0  0  0  0  0  0  0  0  0  0  0  0
   -3.5780    2.3220    0.0000 N   0  0  0  0  0  0  0  0  0  0  0  0
   -4.8660    3.0900    0.0000 C   0  0  0  0  0  0  0  0  0  0  0  0
   -3.5990    0.8220    0.0000 C   0  0  0  0  0  0  0  0  0  0  0  0
   -2.3110    0.0530    0.0000 C   0  0  0  0  0  0  0  0  0  0  0  0
   -0.7490   -1.0680    0.0000 C   0  0  0  0  0  0  0  0  0  0  0  0
   -0.5460   -2.5550    0.0000 C   0  0  0  0  0  0  0  0  0  0  0  0
    0.7420   -3.3230    0.0000 C   0  0  0  0  0  0  0  0  0  0  0  0
    0.7210   -4.8230    0.0000 C   0  0  0  0  0  0  0  0  0  0  0  0
   -0.5890   -5.5540    0.0000 C   0  0  0  0  0  0  0  0  0  0  0  0
   -1.8770   -4.7860    0.0000 C   0  0  0  0  0  0  0  0  0  0  0  0
   -1.8560   -3.2860    0.0000 C   0  0  0  0  0  0  0  0  0  0  0  0
    1.6240    2.4770    0.0000 H   0  0  0  0  0  0  0  0  0  0  0  0
    7.6130    2.8400    0.0000 H   0  0  0  0  0  0  0  0  0  0  0  0
    6.0250    4.2460    0.0000 H   0  0  0  0  0  0  0  0  0  0  0  0
    6.2070    1.2520    0.0000 H   0  0  0  0  0  0  0  0  0  0  0  0
    6.2730    0.1560    0.0000 H   0  0  0  0  0  0  0  0  0  0  0  0
    4.9330   -2.5280    0.0000 H   0  0  0  0  0  0  0  0  0  0  0  0
    0.8570    1.2410    0.0000 H   0  0  0  0  0  0  0  0  0  0  0  0
   -0.4470    3.6870    0.0000 H   0  0  0  0  0  0  0  0  0  0  0  0
    0.3670    2.1950    0.0000 H   0  0  0  0  0  0  0  0  0  0  0  0
   -3.0670    4.3230    0.0000 H   0  0  0  0  0  0  0  0  0  0  0  0
   -1.2880    4.1880    0.0000 H   0  0  0  0  0  0  0  0  0  0  0  0
   -6.1540    3.8580    0.0000 H   0  0  0  0  0  0  0  0  0  0  0  0
   -5.7850    1.9050    0.0000 H   0  0  0  0  0  0  0  0  0  0  0  0
   -4.2600    4.4620    0.0000 H   0  0  0  0  0  0  0  0  0  0  0  0
   -4.1320   -0.5800    0.0000 H   0  0  0  0  0  0  0  0  0  0  0  0
   -5.0960    0.9220    0.0000 H   0  0  0  0  0  0  0  0  0  0  0  0
   -1.9710   -0.6680    0.0000 H   0  0  0  0  0  0  0  0  0  0  0  0
   -3.2910   -1.0820    0.0000 H   0  0  0  0  0  0  0  0  0  0  0  0
   -1.4950   -1.3490    0.0000 H   0  0  0  0  0  0  0  0  0  0  0  0
   -2.0660   -0.3520    0.0000 H   0  0  0  0  0  0  0  0  0  0  0  0
    2.0090   -5.5910    0.0000 H   0  0  0  0  0  0  0  0  0  0  0  0
   -0.6100   -7.0540    0.0000 H   0  0  0  0  0  0  0  0  0  0  0  0
   -3.1860   -5.5170    0.0000 H   0  0  0  0  0  0  0  0  0  0  0  0
   -3.1440   -2.5180    0.0000 H   0  0  0  0  0  0  0  0  0  0  0  0
  1  2  1  0  0  0  0
  1 20  1  0  0  0  0
  2  3  2  0  0  0  0
  2  9  1  0  0  0  0
  3  4  1  0  0  0  0
  3 10  1  0  0  0  0
  4  5  2  0  0  0  0
  4 25  1  0  0  0  0
  5  6  1  0  0  0  0
  5  8  1  0  0  0  0
  6  7  1  0  0  0  0
  7 26  1  0  0  0  0
  7 27  1  0  0  0  0
  7 28  1  0  0  0  0
  8  9  2  0  0  0  0
  8 29  1  0  0  0  0
  9 30  1  0  0  0  0
 10 11  1  0  0  0  0
 10 18  1  0  0  0  0
 10 31  1  1  0  0  0
 11 12  1  0  0  0  0
 11 17  1  0  0  0  0
 12 13  1  0  0  0  0
 12 32  1  0  0  0  0
 12 33  1  0  0  0  0
 13 14  1  0  0  0  0
 13 34  1  0  0  0  0
 13 35  1  0  0  0  0
 14 15  1  0  0  0  0
 14 16  1  0  0  0  0
 15 36  1  0  0  0  0
 15 37  1  0  0  0  0
 15 38  1  0  0  0  0
 16 17  1  0  0  0  0
 16 39  1  0  0  0  0
 16 40  1  0  0  0  0
 17 41  1  0  0  0  0
 17 42  1  0  0  0  0
 18 19  1  0  0  0  0
 18 43  1  0  0  0  0
 18 44  1  0  0  0  0
 19 20  2  0  0  0  0
 19 24  1  0  0  0  0
 20 21  1  0  0  0  0
 21 22  2  0  0  0  0
 21 45  1  0  0  0  0
 22 23  1  0  0  0  0
 22 46  1  0  0  0  0
 23 24  2  0  0  0  0
 23 47  1  0  0  0  0
 24 48  1  0  0  0  0
M  END
$$$$
