2D_structures\o12_MMV1581033_2D.pdb
 OpenBabel02282413353D

 43 44  0  0  1  0  0  0  0  0999 V2000
    0.9350   -4.2070    0.0000 O   0  0  0  0  0  0  0  0  0  0  0  0
   -0.5430   -3.9540    0.0000 C   0  0  0  0  0  0  0  0  0  0  0  0
   -1.5010   -5.1090    0.0000 O   0  0  0  0  0  0  0  0  0  0  0  0
   -1.0640   -2.5480    0.0000 C   0  0  1  0  0  0  0  0  0  0  0  0
    0.3430   -2.0270    0.0000 N   0  0  0  0  0  0  0  0  0  0  0  0
    0.5960   -0.5490    0.0000 C   0  0  0  0  0  0  0  0  0  0  0  0
   -0.0860    0.0170    0.0000 O   0  0  0  0  0  0  0  0  0  0  0  0
    2.0030   -0.0280    0.0000 C   0  0  0  0  0  0  0  0  0  0  0  0
    3.4090    0.4920    0.0000 C   0  0  0  0  0  0  0  0  0  0  0  0
    4.8160    1.0130    0.0000 C   0  0  1  0  0  0  0  0  0  0  0  0
    5.3370   -0.3940    0.0000 N   0  0  0  0  0  0  0  0  0  0  0  0
    6.2230    1.5330    0.0000 C   0  0  0  0  0  0  0  0  0  0  0  0
    7.3770    0.5750    0.0000 O   0  0  0  0  0  0  0  0  0  0  0  0
    6.4760    3.0120    0.0000 O   0  0  0  0  0  0  0  0  0  0  0  0
   -1.5840   -1.1410    0.0000 C   0  0  0  0  0  0  0  0  0  0  0  0
   -2.1050    0.2660    0.0000 C   0  0  0  0  0  0  0  0  0  0  0  0
   -1.2720    1.5140    0.0000 C   0  0  0  0  0  0  0  0  0  0  0  0
   -2.2020    2.6910    0.0000 N   0  0  0  0  0  0  0  0  0  0  0  0
   -3.6090    2.1710    0.0000 C   0  0  0  0  0  0  0  0  0  0  0  0
   -3.5490    0.6720    0.0000 C   0  0  0  0  0  0  0  0  0  0  0  0
   -4.8170   -0.1300    0.0000 C   0  0  0  0  0  0  0  0  0  0  0  0
   -6.1450    0.5670    0.0000 C   0  0  0  0  0  0  0  0  0  0  0  0
   -6.2050    2.0660    0.0000 C   0  0  0  0  0  0  0  0  0  0  0  0
   -4.9370    2.8680    0.0000 C   0  0  0  0  0  0  0  0  0  0  0  0
   -0.9810   -6.5150    0.0000 H   0  0  0  0  0  0  0  0  0  0  0  0
   -2.4700   -3.0680    0.0000 H   0  0  0  0  0  0  0  0  0  0  0  0
    1.4970   -2.9850    0.0000 H   0  0  0  0  0  0  0  0  0  0  0  0
    1.4820    1.3790    0.0000 H   0  0  0  0  0  0  0  0  0  0  0  0
    2.5230   -1.4350    0.0000 H   0  0  0  0  0  0  0  0  0  0  0  0
    3.7550   -0.9670    0.0000 H   0  0  0  0  0  0  0  0  0  0  0  0
    2.8890    1.8990    0.0000 H   0  0  0  0  0  0  0  0  0  0  0  0
    4.2960    2.4200    0.0000 H   0  0  0  0  0  0  0  0  0  0  0  0
    4.5260   -1.6560    0.0000 H   0  0  0  0  0  0  0  0  0  0  0  0
    6.8150   -0.6470    0.0000 H   0  0  0  0  0  0  0  0  0  0  0  0
    7.8820    3.5320    0.0000 H   0  0  0  0  0  0  0  0  0  0  0  0
   -0.8520   -0.6420    0.0000 H   0  0  0  0  0  0  0  0  0  0  0  0
   -2.9910   -1.6610    0.0000 H   0  0  0  0  0  0  0  0  0  0  0  0
    0.2260    1.5740    0.0000 H   0  0  0  0  0  0  0  0  0  0  0  0
   -1.7960    4.1350    0.0000 H   0  0  0  0  0  0  0  0  0  0  0  0
   -4.7560   -1.6290    0.0000 H   0  0  0  0  0  0  0  0  0  0  0  0
   -7.4120   -0.2340    0.0000 H   0  0  0  0  0  0  0  0  0  0  0  0
   -7.5330    2.7630    0.0000 H   0  0  0  0  0  0  0  0  0  0  0  0
   -4.9970    4.3660    0.0000 H   0  0  0  0  0  0  0  0  0  0  0  0
  1  2  2  0  0  0  0
  2  3  1  0  0  0  0
  2  4  1  0  0  0  0
  3 25  1  0  0  0  0
  4  5  1  0  0  0  0
  4 15  1  0  0  0  0
  4 26  1  1  0  0  0
  5  6  1  0  0  0  0
  5 27  1  0  0  0  0
  6  7  2  0  0  0  0
  6  8  1  0  0  0  0
  8  9  1  0  0  0  0
  8 28  1  0  0  0  0
  8 29  1  0  0  0  0
  9 10  1  0  0  0  0
  9 30  1  0  0  0  0
  9 31  1  0  0  0  0
 10 11  1  0  0  0  0
 10 12  1  0  0  0  0
 10 32  1  1  0  0  0
 11 33  1  0  0  0  0
 11 34  1  0  0  0  0
 12 13  2  0  0  0  0
 12 14  1  0  0  0  0
 14 35  1  0  0  0  0
 15 16  1  0  0  0  0
 15 36  1  0  0  0  0
 15 37  1  0  0  0  0
 16 17  2  0  0  0  0
 16 20  1  0  0  0  0
 17 18  1  0  0  0  0
 17 38  1  0  0  0  0
 18 19  1  0  0  0  0
 18 39  1  0  0  0  0
 19 20  2  0  0  0  0
 19 24  1  0  0  0  0
 20 21  1  0  0  0  0
 21 22  2  0  0  0  0
 21 40  1  0  0  0  0
 22 23  1  0  0  0  0
 22 41  1  0  0  0  0
 23 24  2  0  0  0  0
 23 42  1  0  0  0  0
 24 43  1  0  0  0  0
M  END
$$$$
