2D_structures\o15_MMV1580505_2D.pdb
 OpenBabel02282413353D

 55 59  0  0  0  0  0  0  0  0999 V2000
    6.7290    2.9380    0.0000 O   0  0  0  0  0  0  0  0  0  0  0  0
    6.2920    1.5030    0.0000 C   0  0  0  0  0  0  0  0  0  0  0  0
    4.8300    1.1650    0.0000 N   0  0  0  0  0  0  0  0  0  0  0  0
    3.8070    2.2610    0.0000 C   0  0  0  0  0  0  0  0  0  0  0  0
    2.3450    1.9220    0.0000 C   0  0  0  0  0  0  0  0  0  0  0  0
    1.9080    0.4880    0.0000 N   0  0  0  0  0  0  0  0  0  0  0  0
    0.4470    0.1490    0.0000 C   0  0  0  0  0  0  0  0  0  0  0  0
   -0.5770    1.2450    0.0000 C   0  0  0  0  0  0  0  0  0  0  0  0
   -2.0390    0.9070    0.0000 C   0  0  0  0  0  0  0  0  0  0  0  0
   -2.4760   -0.5280    0.0000 C   0  0  0  0  0  0  0  0  0  0  0  0
   -3.9370   -0.8670    0.0000 N   0  0  0  0  0  0  0  0  0  0  0  0
   -4.9610    0.2300    0.0000 C   0  0  0  0  0  0  0  0  0  0  0  0
   -4.5240    1.6640    0.0000 O   0  0  0  0  0  0  0  0  0  0  0  0
   -6.4230   -0.1090    0.0000 C   0  0  0  0  0  0  0  0  0  0  0  0
   -7.4460    0.9870    0.0000 C   0  0  0  0  0  0  0  0  0  0  0  0
   -8.9080    0.6490    0.0000 C   0  0  0  0  0  0  0  0  0  0  0  0
   -9.3450   -0.7860    0.0000 C   0  0  0  0  0  0  0  0  0  0  0  0
  -10.8450   -0.8130    0.0000 O   0  0  0  0  0  0  0  0  0  0  0  0
  -11.3340    0.6050    0.0000 C   0  0  0  0  0  0  0  0  0  0  0  0
  -10.1370    1.5080    0.0000 O   0  0  0  0  0  0  0  0  0  0  0  0
   -8.3210   -1.8820    0.0000 C   0  0  0  0  0  0  0  0  0  0  0  0
   -6.8600   -1.5440    0.0000 C   0  0  0  0  0  0  0  0  0  0  0  0
   -1.4520   -1.6240    0.0000 C   0  0  0  0  0  0  0  0  0  0  0  0
    0.0090   -1.2860    0.0000 C   0  0  0  0  0  0  0  0  0  0  0  0
    2.9320   -0.6090    0.0000 C   0  0  0  0  0  0  0  0  0  0  0  0
    4.3930   -0.2700    0.0000 C   0  0  0  0  0  0  0  0  0  0  0  0
    7.3160    0.4070    0.0000 C   0  0  0  0  0  0  0  0  0  0  0  0
    6.8780   -1.0280    0.0000 C   0  0  0  0  0  0  0  0  0  0  0  0
    7.9020   -2.1240    0.0000 C   0  0  0  0  0  0  0  0  0  0  0  0
    9.3630   -1.7860    0.0000 C   0  0  0  0  0  0  0  0  0  0  0  0
    9.8010   -0.3510    0.0000 C   0  0  0  0  0  0  0  0  0  0  0  0
    8.7770    0.7450    0.0000 C   0  0  0  0  0  0  0  0  0  0  0  0
    3.2190    3.6410    0.0000 H   0  0  0  0  0  0  0  0  0  0  0  0
    5.0640    3.0790    0.0000 H   0  0  0  0  0  0  0  0  0  0  0  0
    0.8560    2.1040    0.0000 H   0  0  0  0  0  0  0  0  0  0  0  0
    2.2660    3.4200    0.0000 H   0  0  0  0  0  0  0  0  0  0  0  0
   -0.1400    2.6800    0.0000 H   0  0  0  0  0  0  0  0  0  0  0  0
   -3.0620    2.0030    0.0000 H   0  0  0  0  0  0  0  0  0  0  0  0
   -4.3750   -2.3010    0.0000 H   0  0  0  0  0  0  0  0  0  0  0  0
   -7.0090    2.4220    0.0000 H   0  0  0  0  0  0  0  0  0  0  0  0
  -12.6930   -0.0300    0.0000 H   0  0  0  0  0  0  0  0  0  0  0  0
  -12.1080    1.8900    0.0000 H   0  0  0  0  0  0  0  0  0  0  0  0
   -8.7590   -3.3170    0.0000 H   0  0  0  0  0  0  0  0  0  0  0  0
   -5.8360   -2.6400    0.0000 H   0  0  0  0  0  0  0  0  0  0  0  0
   -1.8900   -3.0590    0.0000 H   0  0  0  0  0  0  0  0  0  0  0  0
    1.0330   -2.3820    0.0000 H   0  0  0  0  0  0  0  0  0  0  0  0
    3.5190   -1.9890    0.0000 H   0  0  0  0  0  0  0  0  0  0  0  0
    1.6740   -1.4270    0.0000 H   0  0  0  0  0  0  0  0  0  0  0  0
    5.8820   -0.4520    0.0000 H   0  0  0  0  0  0  0  0  0  0  0  0
    4.4730   -1.7680    0.0000 H   0  0  0  0  0  0  0  0  0  0  0  0
    5.4170   -1.3660    0.0000 H   0  0  0  0  0  0  0  0  0  0  0  0
    7.4640   -3.5590    0.0000 H   0  0  0  0  0  0  0  0  0  0  0  0
   10.3870   -2.8820    0.0000 H   0  0  0  0  0  0  0  0  0  0  0  0
   11.2620   -0.0120    0.0000 H   0  0  0  0  0  0  0  0  0  0  0  0
    9.2140    2.1800    0.0000 H   0  0  0  0  0  0  0  0  0  0  0  0
  1  2  2  0  0  0  0
  2  3  1  0  0  0  0
  2 27  1  0  0  0  0
  3  4  1  0  0  0  0
  3 26  1  0  0  0  0
  4  5  1  0  0  0  0
  4 33  1  0  0  0  0
  4 34  1  0  0  0  0
  5  6  1  0  0  0  0
  5 35  1  0  0  0  0
  5 36  1  0  0  0  0
  6  7  1  0  0  0  0
  6 25  1  0  0  0  0
  7  8  2  0  0  0  0
  7 24  1  0  0  0  0
  8  9  1  0  0  0  0
  8 37  1  0  0  0  0
  9 10  2  0  0  0  0
  9 38  1  0  0  0  0
 10 11  1  0  0  0  0
 10 23  1  0  0  0  0
 11 12  1  0  0  0  0
 11 39  1  0  0  0  0
 12 13  2  0  0  0  0
 12 14  1  0  0  0  0
 14 15  2  0  0  0  0
 14 22  1  0  0  0  0
 15 16  1  0  0  0  0
 15 40  1  0  0  0  0
 16 17  2  0  0  0  0
 16 20  1  0  0  0  0
 17 18  1  0  0  0  0
 17 21  1  0  0  0  0
 18 19  1  0  0  0  0
 19 20  1  0  0  0  0
 19 41  1  0  0  0  0
 19 42  1  0  0  0  0
 21 22  2  0  0  0  0
 21 43  1  0  0  0  0
 22 44  1  0  0  0  0
 23 24  2  0  0  0  0
 23 45  1  0  0  0  0
 24 46  1  0  0  0  0
 25 26  1  0  0  0  0
 25 47  1  0  0  0  0
 25 48  1  0  0  0  0
 26 49  1  0  0  0  0
 26 50  1  0  0  0  0
 27 28  2  0  0  0  0
 27 32  1  0  0  0  0
 28 29  1  0  0  0  0
 28 51  1  0  0  0  0
 29 30  2  0  0  0  0
 29 52  1  0  0  0  0
 30 31  1  0  0  0  0
 30 53  1  0  0  0  0
 31 32  2  0  0  0  0
 31 54  1  0  0  0  0
 32 55  1  0  0  0  0
M  END
$$$$
