2D_structures\o16_MMV687798_2D.pdb
 OpenBabel02282413353D

 46 49  0  0  1  0  0  0  0  0999 V2000
    1.3930    3.6080    0.0000 F   0  0  0  0  0  0  0  0  0  0  0  0
    0.3260    2.5530    0.0000 C   0  0  0  0  0  0  0  0  0  0  0  0
    0.7070    1.1020    0.0000 C   0  0  0  0  0  0  0  0  0  0  0  0
    2.1530    0.7060    0.0000 N   0  0  0  0  0  0  0  0  0  0  0  0
    2.5330   -0.7450    0.0000 C   0  0  0  0  0  0  0  0  0  0  0  0
    3.9800   -1.1410    0.0000 C   0  0  0  0  0  0  0  0  0  0  0  0
    5.0470   -0.0870    0.0000 N   0  0  0  0  0  0  0  0  0  0  0  0
    6.4930   -0.4830    0.0000 C   0  0  0  0  0  0  0  0  0  0  0  0
    4.6670    1.3640    0.0000 C   0  0  0  0  0  0  0  0  0  0  0  0
    3.2200    1.7610    0.0000 C   0  0  0  0  0  0  0  0  0  0  0  0
   -0.3600    0.0480    0.0000 C   0  0  0  0  0  0  0  0  0  0  0  0
   -1.8070    0.4440    0.0000 C   0  0  0  0  0  0  0  0  0  0  0  0
   -2.8730   -0.6110    0.0000 N   0  0  0  0  0  0  0  0  0  0  0  0
   -4.3200   -0.2150    0.0000 C   0  0  0  0  0  0  0  0  0  0  0  0
   -4.7000    1.2360    0.0000 C   0  0  0  0  0  0  0  0  0  0  0  0
   -3.6340    2.2910    0.0000 C   0  0  0  0  0  0  0  0  0  0  0  0
   -2.1870    1.8950    0.0000 C   0  0  0  0  0  0  0  0  0  0  0  0
   -1.1200    2.9500    0.0000 C   0  0  0  0  0  0  0  0  0  0  0  0
   -4.0140    3.7420    0.0000 O   0  0  0  0  0  0  0  0  0  0  0  0
   -6.1470    1.6330    0.0000 C   0  0  0  0  0  0  0  0  0  0  0  0
   -6.5270    3.0840    0.0000 O   0  0  0  0  0  0  0  0  0  0  0  0
   -7.2130    0.5780    0.0000 O   0  0  0  0  0  0  0  0  0  0  0  0
   -2.4930   -2.0620    0.0000 C   0  0  1  0  0  0  0  0  0  0  0  0
   -1.0460   -2.4580    0.0000 C   0  0  0  0  0  0  0  0  0  0  0  0
    0.0200   -1.4030    0.0000 O   0  0  0  0  0  0  0  0  0  0  0  0
   -2.6320   -3.5550    0.0000 C   0  0  0  0  0  0  0  0  0  0  0  0
    2.3940   -2.2390    0.0000 H   0  0  0  0  0  0  0  0  0  0  0  0
    1.0380   -0.8670    0.0000 H   0  0  0  0  0  0  0  0  0  0  0  0
    5.0890   -2.1510    0.0000 H   0  0  0  0  0  0  0  0  0  0  0  0
    3.3390   -2.4970    0.0000 H   0  0  0  0  0  0  0  0  0  0  0  0
    7.9400   -0.8790    0.0000 H   0  0  0  0  0  0  0  0  0  0  0  0
    6.2760   -1.9670    0.0000 H   0  0  0  0  0  0  0  0  0  0  0  0
    7.0630    0.9050    0.0000 H   0  0  0  0  0  0  0  0  0  0  0  0
    4.8060    2.8580    0.0000 H   0  0  0  0  0  0  0  0  0  0  0  0
    6.1350    1.6680    0.0000 H   0  0  0  0  0  0  0  0  0  0  0  0
    1.9960    2.6280    0.0000 H   0  0  0  0  0  0  0  0  0  0  0  0
    3.8610    3.1170    0.0000 H   0  0  0  0  0  0  0  0  0  0  0  0
   -5.3870   -1.2690    0.0000 H   0  0  0  0  0  0  0  0  0  0  0  0
   -1.5000    4.4010    0.0000 H   0  0  0  0  0  0  0  0  0  0  0  0
   -8.6600    0.9740    0.0000 H   0  0  0  0  0  0  0  0  0  0  0  0
   -3.9880   -2.1840    0.0000 H   0  0  0  0  0  0  0  0  0  0  0  0
    0.1770   -3.3250    0.0000 H   0  0  0  0  0  0  0  0  0  0  0  0
   -1.2970   -3.2150    0.0000 H   0  0  0  0  0  0  0  0  0  0  0  0
   -2.7710   -5.0490    0.0000 H   0  0  0  0  0  0  0  0  0  0  0  0
   -4.1260   -3.4160    0.0000 H   0  0  0  0  0  0  0  0  0  0  0  0
   -1.8530   -3.7260    0.0000 H   0  0  0  0  0  0  0  0  0  0  0  0
  1  2  1  0  0  0  0
  2  3  2  0  0  0  0
  2 18  1  0  0  0  0
  3  4  1  0  0  0  0
  3 11  1  0  0  0  0
  4  5  1  0  0  0  0
  4 10  1  0  0  0  0
  5  6  1  0  0  0  0
  5 27  1  0  0  0  0
  5 28  1  0  0  0  0
  6  7  1  0  0  0  0
  6 29  1  0  0  0  0
  6 30  1  0  0  0  0
  7  8  1  0  0  0  0
  7  9  1  0  0  0  0
  8 31  1  0  0  0  0
  8 32  1  0  0  0  0
  8 33  1  0  0  0  0
  9 10  1  0  0  0  0
  9 34  1  0  0  0  0
  9 35  1  0  0  0  0
 10 36  1  0  0  0  0
 10 37  1  0  0  0  0
 11 12  2  0  0  0  0
 11 25  1  0  0  0  0
 12 13  1  0  0  0  0
 12 17  1  0  0  0  0
 13 14  1  0  0  0  0
 13 23  1  0  0  0  0
 14 15  2  0  0  0  0
 14 38  1  0  0  0  0
 15 16  1  0  0  0  0
 15 20  1  0  0  0  0
 16 17  1  0  0  0  0
 16 19  2  0  0  0  0
 17 18  2  0  0  0  0
 18 39  1  0  0  0  0
 20 21  2  0  0  0  0
 20 22  1  0  0  0  0
 22 40  1  0  0  0  0
 23 24  1  0  0  0  0
 23 26  1  0  0  0  0
 23 41  1  6  0  0  0
 24 25  1  0  0  0  0
 24 42  1  0  0  0  0
 24 43  1  0  0  0  0
 26 44  1  0  0  0  0
 26 45  1  0  0  0  0
 26 46  1  0  0  0  0
M  END
$$$$
