2D_structures\o19_MMV1580485_2D.pdb
 OpenBabel02282413353D

 44 46  0  0  0  0  0  0  0  0999 V2000
    6.3970   -2.6170    0.0000 Cl  0  0  0  0  0  0  0  0  0  0  0  0
    5.7960   -1.2420    0.0000 C   0  0  0  0  0  0  0  0  0  0  0  0
    4.3050   -1.0760    0.0000 C   0  0  0  0  0  0  0  0  0  0  0  0
    3.4150   -2.2830    0.0000 O   0  0  0  0  0  0  0  0  0  0  0  0
    1.9240   -2.1170    0.0000 C   0  0  0  0  0  0  0  0  0  0  0  0
    0.4340   -1.9500    0.0000 C   0  0  0  0  0  0  0  0  0  0  0  0
   -0.1670   -0.5750    0.0000 C   0  0  0  0  0  0  0  0  0  0  0  0
   -1.6580   -0.4090    0.0000 C   0  0  0  0  0  0  0  0  0  0  0  0
   -2.5480   -1.6160    0.0000 C   0  0  0  0  0  0  0  0  0  0  0  0
   -4.0380   -1.4500    0.0000 C   0  0  0  0  0  0  0  0  0  0  0  0
   -5.5290   -1.2830    0.0000 O   0  0  0  0  0  0  0  0  0  0  0  0
   -6.1300    0.0910    0.0000 C   0  0  0  0  0  0  0  0  0  0  0  0
   -5.2400    1.2990    0.0000 C   0  0  0  0  0  0  0  0  0  0  0  0
   -3.7500    1.1320    0.0000 Cl  0  0  0  0  0  0  0  0  0  0  0  0
   -5.8410    2.6730    0.0000 C   0  0  0  0  0  0  0  0  0  0  0  0
   -7.3320    2.8400    0.0000 C   0  0  0  0  0  0  0  0  0  0  0  0
   -8.2220    1.6320    0.0000 C   0  0  0  0  0  0  0  0  0  0  0  0
   -7.6210    0.2580    0.0000 C   0  0  0  0  0  0  0  0  0  0  0  0
   -8.5110   -0.9490    0.0000 Cl  0  0  0  0  0  0  0  0  0  0  0  0
   -1.9470   -2.9910    0.0000 C   0  0  0  0  0  0  0  0  0  0  0  0
   -0.4560   -3.1570    0.0000 C   0  0  0  0  0  0  0  0  0  0  0  0
    3.7040    0.2990    0.0000 C   0  0  0  0  0  0  0  0  0  0  0  0
    4.5940    1.5060    0.0000 C   0  0  0  0  0  0  0  0  0  0  0  0
    6.0840    1.3400    0.0000 C   0  0  0  0  0  0  0  0  0  0  0  0
    6.6850   -0.0350    0.0000 C   0  0  0  0  0  0  0  0  0  0  0  0
    6.9740    2.5470    0.0000 O   0  0  0  0  0  0  0  0  0  0  0  0
    8.4650    2.3810    0.0000 C   0  0  0  0  0  0  0  0  0  0  0  0
    2.0910   -0.6260    0.0000 H   0  0  0  0  0  0  0  0  0  0  0  0
    1.7580   -3.6070    0.0000 H   0  0  0  0  0  0  0  0  0  0  0  0
    0.7220    0.6320    0.0000 H   0  0  0  0  0  0  0  0  0  0  0  0
   -2.2590    0.9660    0.0000 H   0  0  0  0  0  0  0  0  0  0  0  0
   -4.2050   -2.9400    0.0000 H   0  0  0  0  0  0  0  0  0  0  0  0
   -3.8720    0.0410    0.0000 H   0  0  0  0  0  0  0  0  0  0  0  0
   -4.9520    3.8810    0.0000 H   0  0  0  0  0  0  0  0  0  0  0  0
   -7.9330    4.2140    0.0000 H   0  0  0  0  0  0  0  0  0  0  0  0
   -9.7120    1.7990    0.0000 H   0  0  0  0  0  0  0  0  0  0  0  0
   -2.8360   -4.1980    0.0000 H   0  0  0  0  0  0  0  0  0  0  0  0
    0.1450   -4.5320    0.0000 H   0  0  0  0  0  0  0  0  0  0  0  0
    2.2130    0.4650    0.0000 H   0  0  0  0  0  0  0  0  0  0  0  0
    3.9930    2.8810    0.0000 H   0  0  0  0  0  0  0  0  0  0  0  0
    8.1760   -0.2010    0.0000 H   0  0  0  0  0  0  0  0  0  0  0  0
    9.9550    2.2140    0.0000 H   0  0  0  0  0  0  0  0  0  0  0  0
    8.6310    3.8710    0.0000 H   0  0  0  0  0  0  0  0  0  0  0  0
    8.2980    0.8900    0.0000 H   0  0  0  0  0  0  0  0  0  0  0  0
  1  2  1  0  0  0  0
  2  3  2  0  0  0  0
  2 25  1  0  0  0  0
  3  4  1  0  0  0  0
  3 22  1  0  0  0  0
  4  5  1  0  0  0  0
  5  6  1  0  0  0  0
  5 28  1  0  0  0  0
  5 29  1  0  0  0  0
  6  7  2  0  0  0  0
  6 21  1  0  0  0  0
  7  8  1  0  0  0  0
  7 30  1  0  0  0  0
  8  9  2  0  0  0  0
  8 31  1  0  0  0  0
  9 10  1  0  0  0  0
  9 20  1  0  0  0  0
 10 11  1  0  0  0  0
 10 32  1  0  0  0  0
 10 33  1  0  0  0  0
 11 12  1  0  0  0  0
 12 13  2  0  0  0  0
 12 18  1  0  0  0  0
 13 14  1  0  0  0  0
 13 15  1  0  0  0  0
 15 16  2  0  0  0  0
 15 34  1  0  0  0  0
 16 17  1  0  0  0  0
 16 35  1  0  0  0  0
 17 18  2  0  0  0  0
 17 36  1  0  0  0  0
 18 19  1  0  0  0  0
 20 21  2  0  0  0  0
 20 37  1  0  0  0  0
 21 38  1  0  0  0  0
 22 23  2  0  0  0  0
 22 39  1  0  0  0  0
 23 24  1  0  0  0  0
 23 40  1  0  0  0  0
 24 25  2  0  0  0  0
 24 26  1  0  0  0  0
 25 41  1  0  0  0  0
 26 27  1  0  0  0  0
 27 42  1  0  0  0  0
 27 43  1  0  0  0  0
 27 44  1  0  0  0  0
M  END
$$$$
