2D_structures\o1_MMV617332_2D.pdb
 OpenBabel02282413353D

 41 44  0  0  0  0  0  0  0  0999 V2000
   -7.2320    0.6470    0.0000 O   0  0  0  0  0  0  0  0  0  0  0  0
   -5.7330    0.5960    0.0000 C   0  0  0  0  0  0  0  0  0  0  0  0
   -5.2210    2.0060    0.0000 C   0  0  0  0  0  0  0  0  0  0  0  0
   -6.4040    2.9290    0.0000 C   0  0  0  0  0  0  0  0  0  0  0  0
   -7.6470    2.0890    0.0000 C   0  0  0  0  0  0  0  0  0  0  0  0
   -4.8940   -0.6470    0.0000 C   0  0  0  0  0  0  0  0  0  0  0  0
   -4.0540   -1.8900    0.0000 N   0  0  0  0  0  0  0  0  0  0  0  0
   -2.5580   -1.7850    0.0000 C   0  0  0  0  0  0  0  0  0  0  0  0
   -1.7180   -3.0280    0.0000 C   0  0  0  0  0  0  0  0  0  0  0  0
   -0.2220   -2.9220    0.0000 C   0  0  0  0  0  0  0  0  0  0  0  0
    0.4350   -1.5740    0.0000 C   0  0  0  0  0  0  0  0  0  0  0  0
    1.9200   -1.7810    0.0000 N   0  0  0  0  0  0  0  0  0  0  0  0
    2.9610   -0.7020    0.0000 C   0  0  0  0  0  0  0  0  0  0  0  0
    2.5470    0.7400    0.0000 C   0  0  0  0  0  0  0  0  0  0  0  0
    3.5880    1.8190    0.0000 C   0  0  0  0  0  0  0  0  0  0  0  0
    5.0440    1.4570    0.0000 C   0  0  0  0  0  0  0  0  0  0  0  0
    6.0850    2.5370    0.0000 O   0  0  0  0  0  0  0  0  0  0  0  0
    7.5410    2.1750    0.0000 C   0  0  0  0  0  0  0  0  0  0  0  0
    5.4580    0.0160    0.0000 C   0  0  0  0  0  0  0  0  0  0  0  0
    4.4170   -1.0640    0.0000 C   0  0  0  0  0  0  0  0  0  0  0  0
    2.1810   -3.2580    0.0000 C   0  0  0  0  0  0  0  0  0  0  0  0
    0.8570   -3.9630    0.0000 N   0  0  0  0  0  0  0  0  0  0  0  0
   -0.4050   -0.3310    0.0000 C   0  0  0  0  0  0  0  0  0  0  0  0
   -1.9010   -0.4360    0.0000 C   0  0  0  0  0  0  0  0  0  0  0  0
   -3.7800    2.4200    0.0000 H   0  0  0  0  0  0  0  0  0  0  0  0
   -6.3520    4.4280    0.0000 H   0  0  0  0  0  0  0  0  0  0  0  0
   -9.0570    2.6010    0.0000 H   0  0  0  0  0  0  0  0  0  0  0  0
   -3.6510    0.1920    0.0000 H   0  0  0  0  0  0  0  0  0  0  0  0
   -6.1370   -1.4870    0.0000 H   0  0  0  0  0  0  0  0  0  0  0  0
   -4.7110   -3.2390    0.0000 H   0  0  0  0  0  0  0  0  0  0  0  0
   -2.3750   -4.3760    0.0000 H   0  0  0  0  0  0  0  0  0  0  0  0
    1.1460    1.2770    0.0000 H   0  0  0  0  0  0  0  0  0  0  0  0
    3.1740    3.2610    0.0000 H   0  0  0  0  0  0  0  0  0  0  0  0
    8.9970    1.8130    0.0000 H   0  0  0  0  0  0  0  0  0  0  0  0
    7.9030    3.6310    0.0000 H   0  0  0  0  0  0  0  0  0  0  0  0
    7.1790    0.7190    0.0000 H   0  0  0  0  0  0  0  0  0  0  0  0
    6.9140   -0.3460    0.0000 H   0  0  0  0  0  0  0  0  0  0  0  0
    4.8310   -2.5050    0.0000 H   0  0  0  0  0  0  0  0  0  0  0  0
    3.5300   -3.9150    0.0000 H   0  0  0  0  0  0  0  0  0  0  0  0
    0.0820    1.0880    0.0000 H   0  0  0  0  0  0  0  0  0  0  0  0
   -2.7410    0.8070    0.0000 H   0  0  0  0  0  0  0  0  0  0  0  0
  1  2  1  0  0  0  0
  1  5  1  0  0  0  0
  2  3  2  0  0  0  0
  2  6  1  0  0  0  0
  3  4  1  0  0  0  0
  3 25  1  0  0  0  0
  4  5  2  0  0  0  0
  4 26  1  0  0  0  0
  5 27  1  0  0  0  0
  6  7  1  0  0  0  0
  6 28  1  0  0  0  0
  6 29  1  0  0  0  0
  7  8  1  0  0  0  0
  7 30  1  0  0  0  0
  8  9  2  0  0  0  0
  8 24  1  0  0  0  0
  9 10  1  0  0  0  0
  9 31  1  0  0  0  0
 10 11  2  0  0  0  0
 10 22  1  0  0  0  0
 11 12  1  0  0  0  0
 11 23  1  0  0  0  0
 12 13  1  0  0  0  0
 12 21  1  0  0  0  0
 13 14  2  0  0  0  0
 13 20  1  0  0  0  0
 14 15  1  0  0  0  0
 14 32  1  0  0  0  0
 15 16  2  0  0  0  0
 15 33  1  0  0  0  0
 16 17  1  0  0  0  0
 16 19  1  0  0  0  0
 17 18  1  0  0  0  0
 18 34  1  0  0  0  0
 18 35  1  0  0  0  0
 18 36  1  0  0  0  0
 19 20  2  0  0  0  0
 19 37  1  0  0  0  0
 20 38  1  0  0  0  0
 21 22  2  0  0  0  0
 21 39  1  0  0  0  0
 23 24  2  0  0  0  0
 23 40  1  0  0  0  0
 24 41  1  0  0  0  0
M  END
$$$$
