2D_structures\o22_MMV1782111_2D.pdb
 OpenBabel02282413353D

 44 44  0  0  1  0  0  0  0  0999 V2000
   -4.4470   -1.7640    0.0000 C   0  0  0  0  0  0  0  0  0  0  0  0
   -3.4980   -0.6020    0.0000 C   0  0  0  0  0  0  0  0  0  0  0  0
   -4.6600    0.3460    0.0000 C   0  0  0  0  0  0  0  0  0  0  0  0
   -2.5500    0.5600    0.0000 C   0  0  0  0  0  0  0  0  0  0  0  0
   -2.9070    2.0160    0.0000 O   0  0  0  0  0  0  0  0  0  0  0  0
   -1.0690    0.3190    0.0000 N   0  0  0  0  0  0  0  0  0  0  0  0
   -0.1210    1.4810    0.0000 C   0  0  1  0  0  0  0  0  0  0  0  0
    0.3740    2.8970    0.0000 C   0  0  1  0  0  0  0  0  0  0  0  0
    1.8470    3.1770    0.0000 C   0  0  0  0  0  0  0  0  0  0  0  0
    2.8270    2.0410    0.0000 C   0  0  0  0  0  0  0  0  0  0  0  0
    2.3330    0.6250    0.0000 O   0  0  0  0  0  0  0  0  0  0  0  0
    0.8590    0.3450    0.0000 C   0  0  1  0  0  0  0  0  0  0  0  0
    1.3910   -1.0580    0.0000 C   0  0  1  0  0  0  0  0  0  0  0  0
   -0.0120   -1.5900    0.0000 O   0  0  0  0  0  0  0  0  0  0  0  0
    1.9230   -2.4600    0.0000 C   0  0  1  0  0  0  0  0  0  0  0  0
    3.3250   -1.9280    0.0000 O   0  0  0  0  0  0  0  0  0  0  0  0
    2.4550   -3.8630    0.0000 C   0  0  0  0  0  0  0  0  0  0  0  0
    2.9860   -5.2650    0.0000 O   0  0  0  0  0  0  0  0  0  0  0  0
    4.3000    2.3220    0.0000 C   0  0  0  0  0  0  0  0  0  0  0  0
    4.7940    3.7380    0.0000 O   0  0  0  0  0  0  0  0  0  0  0  0
    5.2800    1.1850    0.0000 O   0  0  0  0  0  0  0  0  0  0  0  0
   -1.1070    3.1380    0.0000 N   0  0  0  0  0  0  0  0  0  0  0  0
   -1.6390    4.5400    0.0000 N   0  3  0  0  0  0  0  0  0  0  0  0
   -2.1710    5.9430    0.0000 N   0  5  0  0  0  0  0  0  0  0  0  0
   -5.3960   -2.9260    0.0000 H   0  0  0  0  0  0  0  0  0  0  0  0
   -3.2850   -2.7130    0.0000 H   0  0  0  0  0  0  0  0  0  0  0  0
   -5.1960   -1.2920    0.0000 H   0  0  0  0  0  0  0  0  0  0  0  0
   -2.3370   -1.5510    0.0000 H   0  0  0  0  0  0  0  0  0  0  0  0
   -5.8220    1.2950    0.0000 H   0  0  0  0  0  0  0  0  0  0  0  0
   -5.3000   -0.2660    0.0000 H   0  0  0  0  0  0  0  0  0  0  0  0
   -3.8600    1.6150    0.0000 H   0  0  0  0  0  0  0  0  0  0  0  0
   -1.0750   -1.1810    0.0000 H   0  0  0  0  0  0  0  0  0  0  0  0
   -1.4290    2.2130    0.0000 H   0  0  0  0  0  0  0  0  0  0  0  0
    0.3540    4.3970    0.0000 H   0  0  0  0  0  0  0  0  0  0  0  0
    2.3410    4.5940    0.0000 H   0  0  0  0  0  0  0  0  0  0  0  0
   -0.3270   -0.5740    0.0000 H   0  0  0  0  0  0  0  0  0  0  0  0
    2.7930   -0.5260    0.0000 H   0  0  0  0  0  0  0  0  0  0  0  0
   -0.4310   -3.0300    0.0000 H   0  0  0  0  0  0  0  0  0  0  0  0
    0.5950   -3.1590    0.0000 H   0  0  0  0  0  0  0  0  0  0  0  0
    4.5940   -2.7280    0.0000 H   0  0  0  0  0  0  0  0  0  0  0  0
    1.0520   -4.3950    0.0000 H   0  0  0  0  0  0  0  0  0  0  0  0
    3.9110   -3.5060    0.0000 H   0  0  0  0  0  0  0  0  0  0  0  0
    2.0380   -6.4270    0.0000 H   0  0  0  0  0  0  0  0  0  0  0  0
    6.2680    4.0180    0.0000 H   0  0  0  0  0  0  0  0  0  0  0  0
  1  2  1  0  0  0  0
  1 25  1  0  0  0  0
  1 26  1  0  0  0  0
  1 27  1  0  0  0  0
  2  3  1  0  0  0  0
  2  4  1  0  0  0  0
  2 28  1  0  0  0  0
  3 29  1  0  0  0  0
  3 30  1  0  0  0  0
  3 31  1  0  0  0  0
  4  5  2  0  0  0  0
  4  6  1  0  0  0  0
  6  7  1  0  0  0  0
  6 32  1  0  0  0  0
  7  8  1  0  0  0  0
  7 12  1  0  0  0  0
  7 33  1  6  0  0  0
  8  9  1  0  0  0  0
  8 22  1  0  0  0  0
  8 34  1  1  0  0  0
  9 10  2  0  0  0  0
  9 35  1  0  0  0  0
 10 11  1  0  0  0  0
 10 19  1  0  0  0  0
 11 12  1  0  0  0  0
 12 13  1  0  0  0  0
 12 36  1  6  0  0  0
 13 14  1  0  0  0  0
 13 15  1  0  0  0  0
 13 37  1  1  0  0  0
 14 38  1  0  0  0  0
 15 16  1  0  0  0  0
 15 17  1  0  0  0  0
 15 39  1  6  0  0  0
 16 40  1  0  0  0  0
 17 18  1  0  0  0  0
 17 41  1  0  0  0  0
 17 42  1  0  0  0  0
 18 43  1  0  0  0  0
 19 20  1  0  0  0  0
 19 21  2  0  0  0  0
 20 44  1  0  0  0  0
 22 23  2  0  0  0  0
 23 24  2  0  0  0  0
M  CHG  2  23   1  24  -1
M  END
$$$$
