2D_structures\o23_MMV1782097_2D.pdb
 OpenBabel02282413353D

 35 37  0  0  0  0  0  0  0  0999 V2000
   -8.3650   -0.0140    0.0000 F   0  0  0  0  0  0  0  0  0  0  0  0
   -6.8670    0.0550    0.0000 C   0  0  0  0  0  0  0  0  0  0  0  0
   -6.1780    1.3870    0.0000 C   0  0  0  0  0  0  0  0  0  0  0  0
   -4.6790    1.4560    0.0000 C   0  0  0  0  0  0  0  0  0  0  0  0
   -3.8700    0.1930    0.0000 C   0  0  0  0  0  0  0  0  0  0  0  0
   -2.3720    0.2620    0.0000 C   0  0  0  0  0  0  0  0  0  0  0  0
   -0.8730    0.3310    0.0000 N   0  0  0  0  0  0  0  0  0  0  0  0
   -0.0640   -0.9320    0.0000 C   0  0  0  0  0  0  0  0  0  0  0  0
   -0.7540   -2.2640    0.0000 O   0  0  0  0  0  0  0  0  0  0  0  0
    1.4340   -0.8630    0.0000 C   0  0  0  0  0  0  0  0  0  0  0  0
    2.1240    0.4690    0.0000 C   0  0  0  0  0  0  0  0  0  0  0  0
    1.3150    1.7330    0.0000 O   0  0  0  0  0  0  0  0  0  0  0  0
    3.6220    0.5380    0.0000 C   0  0  0  0  0  0  0  0  0  0  0  0
    4.4310   -0.7250    0.0000 C   0  0  0  0  0  0  0  0  0  0  0  0
    3.7410   -2.0570    0.0000 N   0  0  0  0  0  0  0  0  0  0  0  0
    2.2430   -2.1260    0.0000 C   0  0  0  0  0  0  0  0  0  0  0  0
    1.5540   -3.4580    0.0000 O   0  0  0  0  0  0  0  0  0  0  0  0
    5.9290   -0.6560    0.0000 C   0  0  0  0  0  0  0  0  0  0  0  0
    6.6190    0.6760    0.0000 C   0  0  0  0  0  0  0  0  0  0  0  0
    5.8100    1.9400    0.0000 C   0  0  0  0  0  0  0  0  0  0  0  0
    4.3110    1.8710    0.0000 N   0  0  0  0  0  0  0  0  0  0  0  0
   -4.5600   -1.1390    0.0000 C   0  0  0  0  0  0  0  0  0  0  0  0
   -6.0580   -1.2080    0.0000 C   0  0  0  0  0  0  0  0  0  0  0  0
   -6.9870    2.6500    0.0000 H   0  0  0  0  0  0  0  0  0  0  0  0
   -3.9900    2.7890    0.0000 H   0  0  0  0  0  0  0  0  0  0  0  0
   -2.3030   -1.2360    0.0000 H   0  0  0  0  0  0  0  0  0  0  0  0
   -2.4410    1.7610    0.0000 H   0  0  0  0  0  0  0  0  0  0  0  0
   -0.1840    1.6630    0.0000 H   0  0  0  0  0  0  0  0  0  0  0  0
    2.0040    3.0650    0.0000 H   0  0  0  0  0  0  0  0  0  0  0  0
    4.5500   -3.3200    0.0000 H   0  0  0  0  0  0  0  0  0  0  0  0
    6.7380   -1.9190    0.0000 H   0  0  0  0  0  0  0  0  0  0  0  0
    8.1170    0.7460    0.0000 H   0  0  0  0  0  0  0  0  0  0  0  0
    6.4990    3.2720    0.0000 H   0  0  0  0  0  0  0  0  0  0  0  0
   -3.7510   -2.4020    0.0000 H   0  0  0  0  0  0  0  0  0  0  0  0
   -6.7470   -2.5400    0.0000 H   0  0  0  0  0  0  0  0  0  0  0  0
  1  2  1  0  0  0  0
  2  3  2  0  0  0  0
  2 23  1  0  0  0  0
  3  4  1  0  0  0  0
  3 24  1  0  0  0  0
  4  5  2  0  0  0  0
  4 25  1  0  0  0  0
  5  6  1  0  0  0  0
  5 22  1  0  0  0  0
  6  7  1  0  0  0  0
  6 26  1  0  0  0  0
  6 27  1  0  0  0  0
  7  8  1  0  0  0  0
  7 28  1  0  0  0  0
  8  9  2  0  0  0  0
  8 10  1  0  0  0  0
 10 11  2  0  0  0  0
 10 16  1  0  0  0  0
 11 12  1  0  0  0  0
 11 13  1  0  0  0  0
 12 29  1  0  0  0  0
 13 14  2  0  0  0  0
 13 21  1  0  0  0  0
 14 15  1  0  0  0  0
 14 18  1  0  0  0  0
 15 16  1  0  0  0  0
 15 30  1  0  0  0  0
 16 17  2  0  0  0  0
 18 19  2  0  0  0  0
 18 31  1  0  0  0  0
 19 20  1  0  0  0  0
 19 32  1  0  0  0  0
 20 21  2  0  0  0  0
 20 33  1  0  0  0  0
 22 23  2  0  0  0  0
 22 34  1  0  0  0  0
 23 35  1  0  0  0  0
M  END
$$$$
