2D_structures\o24_MMV1634398_2D.pdb
 OpenBabel02282413353D

 62 64  0  0  1  0  0  0  0  0999 V2000
    0.0790    0.7750    0.0000 O   0  0  0  0  0  0  0  0  0  0  0  0
   -0.1250   -0.7110    0.0000 C   0  0  0  0  0  0  0  0  0  0  0  0
    1.0600   -1.6310    0.0000 N   0  0  0  0  0  0  0  0  0  0  0  0
    2.4490   -1.0650    0.0000 N   0  0  0  0  0  0  0  0  0  0  0  0
    2.6530    0.4210    0.0000 C   0  0  0  0  0  0  0  0  0  0  0  0
    4.0420    0.9870    0.0000 C   0  0  0  0  0  0  0  0  0  0  0  0
    5.2270    0.0670    0.0000 C   0  0  0  0  0  0  0  0  0  0  0  0
    6.6160    0.6340    0.0000 C   0  0  0  0  0  0  0  0  0  0  0  0
    6.8210    2.1200    0.0000 C   0  0  0  0  0  0  0  0  0  0  0  0
    8.2100    2.6860    0.0000 O   0  0  0  0  0  0  0  0  0  0  0  0
    9.3940    1.7660    0.0000 C   0  0  0  0  0  0  0  0  0  0  0  0
   10.5790    0.8460    0.0000 C   0  0  0  0  0  0  0  0  0  0  0  0
    5.6360    3.0400    0.0000 C   0  0  0  0  0  0  0  0  0  0  0  0
    4.2470    2.4730    0.0000 C   0  0  0  0  0  0  0  0  0  0  0  0
    7.8010   -0.2860    0.0000 O   0  0  0  0  0  0  0  0  0  0  0  0
    7.5970   -1.7720    0.0000 C   0  0  0  0  0  0  0  0  0  0  0  0
    7.3920   -3.2580    0.0000 C   0  0  0  0  0  0  0  0  0  0  0  0
   -1.5140   -1.2770    0.0000 C   0  0  1  0  0  0  0  0  0  0  0  0
   -3.0130   -1.3340    0.0000 C   0  0  1  0  0  0  0  0  0  0  0  0
   -4.4410   -0.8740    0.0000 C   0  0  0  0  0  0  0  0  0  0  0  0
   -4.7570    0.5920    0.0000 C   0  0  0  0  0  0  0  0  0  0  0  0
   -6.1850    1.0510    0.0000 C   0  0  0  0  0  0  0  0  0  0  0  0
   -7.2970    0.0440    0.0000 C   0  0  0  0  0  0  0  0  0  0  0  0
   -8.7250    0.5030    0.0000 C   0  0  0  0  0  0  0  0  0  0  0  0
   -9.1840   -0.9250    0.0000 C   0  0  0  0  0  0  0  0  0  0  0  0
   -8.2660    1.9310    0.0000 C   0  0  0  0  0  0  0  0  0  0  0  0
  -10.1530    0.9630    0.0000 C   0  0  0  0  0  0  0  0  0  0  0  0
   -6.9810   -1.4220    0.0000 C   0  0  0  0  0  0  0  0  0  0  0  0
   -5.5530   -1.8810    0.0000 C   0  0  0  0  0  0  0  0  0  0  0  0
   -2.3130   -0.0070    0.0000 C   0  0  0  0  0  0  0  0  0  0  0  0
    0.8560   -3.1170    0.0000 H   0  0  0  0  0  0  0  0  0  0  0  0
    1.4690    1.3410    0.0000 H   0  0  0  0  0  0  0  0  0  0  0  0
    5.0230   -1.4190    0.0000 H   0  0  0  0  0  0  0  0  0  0  0  0
   10.3140    2.9500    0.0000 H   0  0  0  0  0  0  0  0  0  0  0  0
    8.4740    0.5810    0.0000 H   0  0  0  0  0  0  0  0  0  0  0  0
    9.6590   -0.3390    0.0000 H   0  0  0  0  0  0  0  0  0  0  0  0
   11.4990    2.0300    0.0000 H   0  0  0  0  0  0  0  0  0  0  0  0
   11.7640   -0.0740    0.0000 H   0  0  0  0  0  0  0  0  0  0  0  0
    5.8400    4.5260    0.0000 H   0  0  0  0  0  0  0  0  0  0  0  0
    3.0620    3.3930    0.0000 H   0  0  0  0  0  0  0  0  0  0  0  0
    9.0830   -1.9770    0.0000 H   0  0  0  0  0  0  0  0  0  0  0  0
    6.1110   -1.5680    0.0000 H   0  0  0  0  0  0  0  0  0  0  0  0
    5.9060   -3.0540    0.0000 H   0  0  0  0  0  0  0  0  0  0  0  0
    8.8780   -3.4630    0.0000 H   0  0  0  0  0  0  0  0  0  0  0  0
    7.1880   -4.7440    0.0000 H   0  0  0  0  0  0  0  0  0  0  0  0
   -1.1980   -2.7430    0.0000 H   0  0  0  0  0  0  0  0  0  0  0  0
   -3.2170   -2.8200    0.0000 H   0  0  0  0  0  0  0  0  0  0  0  0
   -3.7760    1.7270    0.0000 H   0  0  0  0  0  0  0  0  0  0  0  0
   -6.3720    1.9170    0.0000 H   0  0  0  0  0  0  0  0  0  0  0  0
  -10.0540   -0.7580    0.0000 H   0  0  0  0  0  0  0  0  0  0  0  0
   -7.9100   -1.7160    0.0000 H   0  0  0  0  0  0  0  0  0  0  0  0
   -9.6430   -2.3530    0.0000 H   0  0  0  0  0  0  0  0  0  0  0  0
   -9.0690    2.3030    0.0000 H   0  0  0  0  0  0  0  0  0  0  0  0
   -7.3820    1.8720    0.0000 H   0  0  0  0  0  0  0  0  0  0  0  0
   -7.8060    3.3590    0.0000 H   0  0  0  0  0  0  0  0  0  0  0  0
   -9.9860    1.8330    0.0000 H   0  0  0  0  0  0  0  0  0  0  0  0
  -10.5250    0.1590    0.0000 H   0  0  0  0  0  0  0  0  0  0  0  0
  -11.5810    1.4220    0.0000 H   0  0  0  0  0  0  0  0  0  0  0  0
   -8.0920   -2.4290    0.0000 H   0  0  0  0  0  0  0  0  0  0  0  0
   -5.2360   -3.3480    0.0000 H   0  0  0  0  0  0  0  0  0  0  0  0
   -3.3760    1.0500    0.0000 H   0  0  0  0  0  0  0  0  0  0  0  0
   -1.2010    1.0000    0.0000 H   0  0  0  0  0  0  0  0  0  0  0  0
  1  2  2  0  0  0  0
  2  3  1  0  0  0  0
  2 18  1  0  0  0  0
  3  4  1  0  0  0  0
  3 31  1  0  0  0  0
  4  5  2  0  0  0  0
  5  6  1  0  0  0  0
  5 32  1  0  0  0  0
  6  7  2  0  0  0  0
  6 14  1  0  0  0  0
  7  8  1  0  0  0  0
  7 33  1  0  0  0  0
  8  9  2  0  0  0  0
  8 15  1  0  0  0  0
  9 10  1  0  0  0  0
  9 13  1  0  0  0  0
 10 11  1  0  0  0  0
 11 12  1  0  0  0  0
 11 34  1  0  0  0  0
 11 35  1  0  0  0  0
 12 36  1  0  0  0  0
 12 37  1  0  0  0  0
 12 38  1  0  0  0  0
 13 14  2  0  0  0  0
 13 39  1  0  0  0  0
 14 40  1  0  0  0  0
 15 16  1  0  0  0  0
 16 17  1  0  0  0  0
 16 41  1  0  0  0  0
 16 42  1  0  0  0  0
 17 43  1  0  0  0  0
 17 44  1  0  0  0  0
 17 45  1  0  0  0  0
 18 19  1  0  0  0  0
 18 30  1  0  0  0  0
 18 46  1  6  0  0  0
 19 20  1  0  0  0  0
 19 30  1  0  0  0  0
 19 47  1  6  0  0  0
 20 21  2  0  0  0  0
 20 29  1  0  0  0  0
 21 22  1  0  0  0  0
 21 48  1  0  0  0  0
 22 23  2  0  0  0  0
 22 49  1  0  0  0  0
 23 24  1  0  0  0  0
 23 28  1  0  0  0  0
 24 25  1  0  0  0  0
 24 26  1  0  0  0  0
 24 27  1  0  0  0  0
 25 50  1  0  0  0  0
 25 51  1  0  0  0  0
 25 52  1  0  0  0  0
 26 53  1  0  0  0  0
 26 54  1  0  0  0  0
 26 55  1  0  0  0  0
 27 56  1  0  0  0  0
 27 57  1  0  0  0  0
 27 58  1  0  0  0  0
 28 29  2  0  0  0  0
 28 59  1  0  0  0  0
 29 60  1  0  0  0  0
 30 61  1  0  0  0  0
 30 62  1  0  0  0  0
M  END
$$$$
