2D_structures\o25_MMV1634396_2D.pdb
 OpenBabel02282413353D

 57 61  0  0  1  0  0  0  0  0999 V2000
   -1.0660   -0.7700    0.0000 Cl  0  0  0  0  0  0  0  0  0  0  0  0
   -2.0980    0.3180    0.0000 C   0  0  0  0  0  0  0  0  0  0  0  0
   -1.8240    1.7930    0.0000 C   0  0  0  0  0  0  0  0  0  0  0  0
   -3.1420    2.5100    0.0000 N   0  0  0  0  0  0  0  0  0  0  0  0
   -4.2310    1.4780    0.0000 C   0  0  0  0  0  0  0  0  0  0  0  0
   -3.5860    0.1230    0.0000 N   0  0  0  0  0  0  0  0  0  0  0  0
   -4.4360   -1.1120    0.0000 C   0  0  0  0  0  0  0  0  0  0  0  0
   -5.9310   -0.9940    0.0000 C   0  0  0  0  0  0  0  0  0  0  0  0
   -6.7820   -2.2290    0.0000 C   0  0  0  0  0  0  0  0  0  0  0  0
   -8.0030   -3.1000    0.0000 C   0  0  0  0  0  0  0  0  0  0  0  0
   -8.1460   -1.6070    0.0000 C   0  0  0  0  0  0  0  0  0  0  0  0
   -6.5760    0.3610    0.0000 C   0  0  0  0  0  0  0  0  0  0  0  0
   -5.7260    1.5960    0.0000 C   0  0  0  0  0  0  0  0  0  0  0  0
   -6.3710    2.9510    0.0000 C   0  0  0  0  0  0  0  0  0  0  0  0
   -7.0160    4.3050    0.0000 F   0  0  0  0  0  0  0  0  0  0  0  0
   -5.0170    3.5960    0.0000 F   0  0  0  0  0  0  0  0  0  0  0  0
   -7.7250    2.3060    0.0000 F   0  0  0  0  0  0  0  0  0  0  0  0
   -0.4700    2.4380    0.0000 C   0  0  0  0  0  0  0  0  0  0  0  0
   -0.3510    3.9330    0.0000 O   0  0  0  0  0  0  0  0  0  0  0  0
    0.7660    1.5880    0.0000 N   0  0  0  0  0  0  0  0  0  0  0  0
    0.6470    0.0920    0.0000 C   0  0  0  0  0  0  0  0  0  0  0  0
    1.8830   -0.7580    0.0000 C   0  0  0  0  0  0  0  0  0  0  0  0
    1.7640   -2.2530    0.0000 O   0  0  0  0  0  0  0  0  0  0  0  0
    3.2370   -0.1130    0.0000 N   0  0  0  0  0  0  0  0  0  0  0  0
    4.4730   -0.9630    0.0000 C   0  0  1  0  0  0  0  0  0  0  0  0
    5.0960    0.4010    0.0000 C   0  0  0  0  0  0  0  0  0  0  0  0
    6.5890    0.5440    0.0000 C   0  0  0  0  0  0  0  0  0  0  0  0
    7.4590   -0.6770    0.0000 C   0  0  1  0  0  0  0  0  0  0  0  0
    8.5110    0.3920    0.0000 O   0  0  0  0  0  0  0  0  0  0  0  0
    6.8360   -2.0420    0.0000 C   0  0  0  0  0  0  0  0  0  0  0  0
    5.3430   -2.1850    0.0000 C   0  0  0  0  0  0  0  0  0  0  0  0
    3.3560    1.3820    0.0000 C   0  0  0  0  0  0  0  0  0  0  0  0
    2.1200    2.2330    0.0000 C   0  0  0  0  0  0  0  0  0  0  0  0
   -3.7910   -2.4660    0.0000 H   0  0  0  0  0  0  0  0  0  0  0  0
   -5.7120   -3.2810    0.0000 H   0  0  0  0  0  0  0  0  0  0  0  0
   -7.3580   -4.4540    0.0000 H   0  0  0  0  0  0  0  0  0  0  0  0
   -9.4490   -3.5000    0.0000 H   0  0  0  0  0  0  0  0  0  0  0  0
   -9.6410   -1.4880    0.0000 H   0  0  0  0  0  0  0  0  0  0  0  0
   -7.9870   -0.4020    0.0000 H   0  0  0  0  0  0  0  0  0  0  0  0
   -7.7670    0.6040    0.0000 H   0  0  0  0  0  0  0  0  0  0  0  0
    0.0240   -1.2720    0.0000 H   0  0  0  0  0  0  0  0  0  0  0  0
   -0.8050    0.4690    0.0000 H   0  0  0  0  0  0  0  0  0  0  0  0
    3.4210   -2.0320    0.0000 H   0  0  0  0  0  0  0  0  0  0  0  0
    5.1660    1.2840    0.0000 H   0  0  0  0  0  0  0  0  0  0  0  0
    4.2310    0.8720    0.0000 H   0  0  0  0  0  0  0  0  0  0  0  0
    7.9430    1.1890    0.0000 H   0  0  0  0  0  0  0  0  0  0  0  0
    6.1890    1.9900    0.0000 H   0  0  0  0  0  0  0  0  0  0  0  0
    8.6950   -1.5280    0.0000 H   0  0  0  0  0  0  0  0  0  0  0  0
    9.9630    0.0160    0.0000 H   0  0  0  0  0  0  0  0  0  0  0  0
    6.7180   -3.5370    0.0000 H   0  0  0  0  0  0  0  0  0  0  0  0
    8.2880   -2.4180    0.0000 H   0  0  0  0  0  0  0  0  0  0  0  0
    3.9890   -2.8300    0.0000 H   0  0  0  0  0  0  0  0  0  0  0  0
    5.7430   -3.6310    0.0000 H   0  0  0  0  0  0  0  0  0  0  0  0
    3.9790    2.7470    0.0000 H   0  0  0  0  0  0  0  0  0  0  0  0
    4.1530    1.3750    0.0000 H   0  0  0  0  0  0  0  0  0  0  0  0
    1.2500    3.4540    0.0000 H   0  0  0  0  0  0  0  0  0  0  0  0
    3.1720    3.3020    0.0000 H   0  0  0  0  0  0  0  0  0  0  0  0
  1  2  1  0  0  0  0
  2  3  2  0  0  0  0
  2  6  1  0  0  0  0
  3  4  1  0  0  0  0
  3 18  1  0  0  0  0
  4  5  2  0  0  0  0
  5  6  1  0  0  0  0
  5 13  1  0  0  0  0
  6  7  1  0  0  0  0
  7  8  2  0  0  0  0
  7 34  1  0  0  0  0
  8  9  1  0  0  0  0
  8 12  1  0  0  0  0
  9 10  1  0  0  0  0
  9 11  1  0  0  0  0
  9 35  1  0  0  0  0
 10 11  1  0  0  0  0
 10 36  1  0  0  0  0
 10 37  1  0  0  0  0
 11 38  1  0  0  0  0
 11 39  1  0  0  0  0
 12 13  2  0  0  0  0
 12 40  1  0  0  0  0
 13 14  1  0  0  0  0
 14 15  1  0  0  0  0
 14 16  1  0  0  0  0
 14 17  1  0  0  0  0
 18 19  2  0  0  0  0
 18 20  1  0  0  0  0
 20 21  1  0  0  0  0
 20 33  1  0  0  0  0
 21 22  1  0  0  0  0
 21 41  1  0  0  0  0
 21 42  1  0  0  0  0
 22 23  2  0  0  0  0
 22 24  1  0  0  0  0
 24 25  1  0  0  0  0
 24 32  1  0  0  0  0
 25 26  1  0  0  0  0
 25 31  1  0  0  0  0
 25 43  1  6  0  0  0
 26 27  1  0  0  0  0
 26 44  1  0  0  0  0
 26 45  1  0  0  0  0
 27 28  1  0  0  0  0
 27 46  1  0  0  0  0
 27 47  1  0  0  0  0
 28 29  1  0  0  0  0
 28 30  1  0  0  0  0
 28 48  1  6  0  0  0
 29 49  1  0  0  0  0
 30 31  1  0  0  0  0
 30 50  1  0  0  0  0
 30 51  1  0  0  0  0
 31 52  1  0  0  0  0
 31 53  1  0  0  0  0
 32 33  1  0  0  0  0
 32 54  1  0  0  0  0
 32 55  1  0  0  0  0
 33 56  1  0  0  0  0
 33 57  1  0  0  0  0
M  END
$$$$
