2D_structures\o26_MMV1634385_2D.pdb
 OpenBabel02282413353D

 54 59  0  0  1  0  0  0  0  0999 V2000
   -6.9450   -3.6500    0.0000 F   0  0  0  0  0  0  0  0  0  0  0  0
   -5.6190   -2.9480    0.0000 C   0  0  0  0  0  0  0  0  0  0  0  0
   -6.3200   -1.6220    0.0000 F   0  0  0  0  0  0  0  0  0  0  0  0
   -4.9180   -4.2740    0.0000 F   0  0  0  0  0  0  0  0  0  0  0  0
   -4.2930   -2.2470    0.0000 C   0  0  0  0  0  0  0  0  0  0  0  0
   -3.0230   -3.0450    0.0000 C   0  0  0  0  0  0  0  0  0  0  0  0
   -1.6970   -2.3440    0.0000 C   0  0  0  0  0  0  0  0  0  0  0  0
   -1.6410   -0.8450    0.0000 C   0  0  0  0  0  0  0  0  0  0  0  0
   -0.1980   -0.4350    0.0000 N   0  0  0  0  0  0  0  0  0  0  0  0
    0.3180    0.9740    0.0000 C   0  0  1  0  0  0  0  0  0  0  0  0
   -0.6430    2.1250    0.0000 C   0  0  0  0  0  0  0  0  0  0  0  0
   -0.1270    3.5330    0.0000 C   0  0  1  0  0  0  0  0  0  0  0  0
    1.3510    3.7910    0.0000 C   0  0  0  0  0  0  0  0  0  0  0  0
    2.3120    2.6390    0.0000 C   0  0  1  0  0  0  0  0  0  0  0  0
    1.7960    1.2310    0.0000 C   0  0  0  0  0  0  0  0  0  0  0  0
   -0.7130    1.3520    0.0000 C   0  0  0  0  0  0  0  0  0  0  0  0
   -2.1210    1.8680    0.0000 C   0  0  1  0  0  0  0  0  0  0  0  0
   -1.1600    0.7170    0.0000 C   0  0  0  0  0  0  0  0  0  0  0  0
   -1.6050    3.2760    0.0000 C   0  0  0  0  0  0  0  0  0  0  0  0
    0.6380   -1.6800    0.0000 C   0  0  0  0  0  0  0  0  0  0  0  0
   -0.2880   -2.8600    0.0000 N   0  0  0  0  0  0  0  0  0  0  0  0
    2.1370   -1.7360    0.0000 C   0  0  0  0  0  0  0  0  0  0  0  0
    2.9350   -0.4650    0.0000 C   0  0  0  0  0  0  0  0  0  0  0  0
    4.4340   -0.5210    0.0000 C   0  0  0  0  0  0  0  0  0  0  0  0
    5.1350   -1.8470    0.0000 C   0  0  0  0  0  0  0  0  0  0  0  0
    6.6340   -1.9030    0.0000 N   0  0  0  0  0  0  0  0  0  0  0  0
    4.3370   -3.1170    0.0000 C   0  0  0  0  0  0  0  0  0  0  0  0
    2.8380   -3.0620    0.0000 C   0  0  0  0  0  0  0  0  0  0  0  0
   -2.9110   -0.0470    0.0000 C   0  0  0  0  0  0  0  0  0  0  0  0
   -4.2370   -0.7480    0.0000 C   0  0  0  0  0  0  0  0  0  0  0  0
   -3.0780   -4.5440    0.0000 H   0  0  0  0  0  0  0  0  0  0  0  0
   -1.4940    2.3710    0.0000 H   0  0  0  0  0  0  0  0  0  0  0  0
   -1.2890    1.6580    0.0000 H   0  0  0  0  0  0  0  0  0  0  0  0
   -0.9410    4.7930    0.0000 H   0  0  0  0  0  0  0  0  0  0  0  0
    2.6510    4.5380    0.0000 H   0  0  0  0  0  0  0  0  0  0  0  0
    0.8410    5.2010    0.0000 H   0  0  0  0  0  0  0  0  0  0  0  0
    3.7900    2.8970    0.0000 H   0  0  0  0  0  0  0  0  0  0  0  0
    1.7930   -0.2690    0.0000 H   0  0  0  0  0  0  0  0  0  0  0  0
    3.2730    0.9670    0.0000 H   0  0  0  0  0  0  0  0  0  0  0  0
   -1.1290   -0.0890    0.0000 H   0  0  0  0  0  0  0  0  0  0  0  0
    0.1660    0.1360    0.0000 H   0  0  0  0  0  0  0  0  0  0  0  0
   -3.6190    1.7930    0.0000 H   0  0  0  0  0  0  0  0  0  0  0  0
   -1.0060   -0.7750    0.0000 H   0  0  0  0  0  0  0  0  0  0  0  0
   -2.6020    0.3070    0.0000 H   0  0  0  0  0  0  0  0  0  0  0  0
   -3.0820    3.5400    0.0000 H   0  0  0  0  0  0  0  0  0  0  0  0
   -1.7840    4.7660    0.0000 H   0  0  0  0  0  0  0  0  0  0  0  0
    2.5750    0.9910    0.0000 H   0  0  0  0  0  0  0  0  0  0  0  0
    5.2310    0.7490    0.0000 H   0  0  0  0  0  0  0  0  0  0  0  0
    7.4320   -0.6330    0.0000 H   0  0  0  0  0  0  0  0  0  0  0  0
    7.3350   -3.2290    0.0000 H   0  0  0  0  0  0  0  0  0  0  0  0
    5.0380   -4.4430    0.0000 H   0  0  0  0  0  0  0  0  0  0  0  0
    2.0400   -4.3320    0.0000 H   0  0  0  0  0  0  0  0  0  0  0  0
   -3.0380    1.4480    0.0000 H   0  0  0  0  0  0  0  0  0  0  0  0
   -5.5070    0.0500    0.0000 H   0  0  0  0  0  0  0  0  0  0  0  0
  1  2  1  0  0  0  0
  2  3  1  0  0  0  0
  2  4  1  0  0  0  0
  2  5  1  0  0  0  0
  5  6  1  0  0  0  0
  5 30  2  0  0  0  0
  6  7  2  0  0  0  0
  6 31  1  0  0  0  0
  7  8  1  0  0  0  0
  7 21  1  0  0  0  0
  8  9  1  0  0  0  0
  8 29  2  0  0  0  0
  9 20  1  0  0  0  0
 10  9  1  1  0  0  0
 10 11  1  0  0  0  0
 10 15  1  0  0  0  0
 10 18  1  0  0  0  0
 11 12  1  0  0  0  0
 11 32  1  0  0  0  0
 11 33  1  0  0  0  0
 12 13  1  0  0  0  0
 12 19  1  0  0  0  0
 12 34  1  1  0  0  0
 13 14  1  0  0  0  0
 13 35  1  0  0  0  0
 13 36  1  0  0  0  0
 14 15  1  0  0  0  0
 14 16  1  0  0  0  0
 14 37  1  6  0  0  0
 15 38  1  0  0  0  0
 15 39  1  0  0  0  0
 16 17  1  0  0  0  0
 16 40  1  0  0  0  0
 16 41  1  0  0  0  0
 17 18  1  0  0  0  0
 17 19  1  0  0  0  0
 17 42  1  6  0  0  0
 18 43  1  0  0  0  0
 18 44  1  0  0  0  0
 19 45  1  0  0  0  0
 19 46  1  0  0  0  0
 20 21  2  0  0  0  0
 20 22  1  0  0  0  0
 22 23  2  0  0  0  0
 22 28  1  0  0  0  0
 23 24  1  0  0  0  0
 23 47  1  0  0  0  0
 24 25  2  0  0  0  0
 24 48  1  0  0  0  0
 25 26  1  0  0  0  0
 25 27  1  0  0  0  0
 26 49  1  0  0  0  0
 26 50  1  0  0  0  0
 27 28  2  0  0  0  0
 27 51  1  0  0  0  0
 28 52  1  0  0  0  0
 29 30  1  0  0  0  0
 29 53  1  0  0  0  0
 30 54  1  0  0  0  0
M  END
$$$$
