2D_structures\o30_MMV637855_2D.pdb
 OpenBabel02282413353D

 34 36  0  0  1  0  0  0  0  0999 V2000
   -2.0060    1.5020    0.0000 N   0  0  0  0  0  0  0  0  0  0  0  0
   -1.5980    0.0590    0.0000 C   0  0  1  0  0  0  0  0  0  0  0  0
   -0.1540    0.4670    0.0000 C   0  0  1  0  0  0  0  0  0  0  0  0
    0.9210   -0.5800    0.0000 C   0  0  0  0  0  0  0  0  0  0  0  0
    2.3640   -0.1720    0.0000 C   0  0  1  0  0  0  0  0  0  0  0  0
    2.7330    1.2820    0.0000 C   0  0  0  0  0  0  0  0  0  0  0  0
    1.6580    2.3280    0.0000 C   0  0  1  0  0  0  0  0  0  0  0  0
    0.2140    1.9210    0.0000 C   0  0  0  0  0  0  0  0  0  0  0  0
    0.1440   -0.5900    0.0000 C   0  0  0  0  0  0  0  0  0  0  0  0
    0.5520   -2.0340    0.0000 C   0  0  1  0  0  0  0  0  0  0  0  0
   -0.5230   -0.9880    0.0000 C   0  0  0  0  0  0  0  0  0  0  0  0
    1.9950   -1.6260    0.0000 C   0  0  0  0  0  0  0  0  0  0  0  0
   -3.0410   -0.3490    0.0000 C   0  0  0  0  0  0  0  0  0  0  0  0
   -3.4040    2.0450    0.0000 H   0  0  0  0  0  0  0  0  0  0  0  0
   -1.0980    2.6970    0.0000 H   0  0  0  0  0  0  0  0  0  0  0  0
   -2.0920   -1.3580    0.0000 H   0  0  0  0  0  0  0  0  0  0  0  0
    1.1010   -1.4470    0.0000 H   0  0  0  0  0  0  0  0  0  0  0  0
    0.4840   -1.2470    0.0000 H   0  0  0  0  0  0  0  0  0  0  0  0
    3.5580   -1.0790    0.0000 H   0  0  0  0  0  0  0  0  0  0  0  0
    3.5760    2.5220    0.0000 H   0  0  0  0  0  0  0  0  0  0  0  0
    4.1000    0.6670    0.0000 H   0  0  0  0  0  0  0  0  0  0  0  0
    2.0260    3.7820    0.0000 H   0  0  0  0  0  0  0  0  0  0  0  0
   -1.1430    2.5600    0.0000 H   0  0  0  0  0  0  0  0  0  0  0  0
    0.0630    3.4130    0.0000 H   0  0  0  0  0  0  0  0  0  0  0  0
   -1.2760   -1.0730    0.0000 H   0  0  0  0  0  0  0  0  0  0  0  0
   -1.0010    0.3780    0.0000 H   0  0  0  0  0  0  0  0  0  0  0  0
    0.1830   -3.4880    0.0000 H   0  0  0  0  0  0  0  0  0  0  0  0
   -1.9990   -0.7210    0.0000 H   0  0  0  0  0  0  0  0  0  0  0  0
   -1.2090   -2.3210    0.0000 H   0  0  0  0  0  0  0  0  0  0  0  0
    2.1460   -3.1180    0.0000 H   0  0  0  0  0  0  0  0  0  0  0  0
    3.4670   -1.9180    0.0000 H   0  0  0  0  0  0  0  0  0  0  0  0
   -4.4850   -0.7570    0.0000 H   0  0  0  0  0  0  0  0  0  0  0  0
   -3.6220    1.0340    0.0000 H   0  0  0  0  0  0  0  0  0  0  0  0
   -2.6340   -1.7930    0.0000 H   0  0  0  0  0  0  0  0  0  0  0  0
  1  2  1  0  0  0  0
  1 14  1  0  0  0  0
  1 15  1  0  0  0  0
  2 13  1  0  0  0  0
  2 16  1  6  0  0  0
  3  2  1  6  0  0  0
  3  4  1  0  0  0  0
  3  8  1  0  0  0  0
  3 11  1  0  0  0  0
  4  5  1  0  0  0  0
  4 17  1  0  0  0  0
  4 18  1  0  0  0  0
  5  6  1  0  0  0  0
  5 12  1  0  0  0  0
  5 19  1  6  0  0  0
  6  7  1  0  0  0  0
  6 20  1  0  0  0  0
  6 21  1  0  0  0  0
  7  8  1  0  0  0  0
  7  9  1  0  0  0  0
  7 22  1  1  0  0  0
  8 23  1  0  0  0  0
  8 24  1  0  0  0  0
  9 10  1  0  0  0  0
  9 25  1  0  0  0  0
  9 26  1  0  0  0  0
 10 11  1  0  0  0  0
 10 12  1  0  0  0  0
 10 27  1  1  0  0  0
 11 28  1  0  0  0  0
 11 29  1  0  0  0  0
 12 30  1  0  0  0  0
 12 31  1  0  0  0  0
 13 32  1  0  0  0  0
 13 33  1  0  0  0  0
 13 34  1  0  0  0  0
M  END
$$$$
