2D_structures\o33_MMV1580482_2D.pdb
 OpenBabel02282413353D

 59 64  0  0  0  0  0  0  0  0999 V2000
   -3.3290   -4.5660    0.0000 N   0  0  0  0  0  0  0  0  0  0  0  0
   -4.4960   -3.6230    0.0000 C   0  0  0  0  0  0  0  0  0  0  0  0
   -5.9770   -3.8590    0.0000 N   0  0  0  0  0  0  0  0  0  0  0  0
   -6.6600   -2.5230    0.0000 C   0  0  0  0  0  0  0  0  0  0  0  0
   -5.6000   -1.4620    0.0000 C   0  0  0  0  0  0  0  0  0  0  0  0
   -4.2630   -2.1410    0.0000 C   0  0  0  0  0  0  0  0  0  0  0  0
   -2.8630   -1.6020    0.0000 C   0  0  0  0  0  0  0  0  0  0  0  0
   -1.6960   -2.5450    0.0000 C   0  0  0  0  0  0  0  0  0  0  0  0
   -1.9300   -4.0270    0.0000 C   0  0  0  0  0  0  0  0  0  0  0  0
   -0.2960   -2.0060    0.0000 C   0  0  0  0  0  0  0  0  0  0  0  0
    0.8700   -2.9490    0.0000 C   0  0  0  0  0  0  0  0  0  0  0  0
    2.2700   -2.4100    0.0000 C   0  0  0  0  0  0  0  0  0  0  0  0
    2.5030   -0.9290    0.0000 C   0  0  0  0  0  0  0  0  0  0  0  0
    3.9030   -0.3900    0.0000 C   0  0  0  0  0  0  0  0  0  0  0  0
    5.3030    0.1490    0.0000 N   0  0  0  0  0  0  0  0  0  0  0  0
    6.4700   -0.7940    0.0000 C   0  0  0  0  0  0  0  0  0  0  0  0
    7.8690   -0.2550    0.0000 C   0  0  0  0  0  0  0  0  0  0  0  0
    8.1030    1.2270    0.0000 N   0  0  0  0  0  0  0  0  0  0  0  0
    9.5030    1.7660    0.0000 C   0  0  0  0  0  0  0  0  0  0  0  0
    6.9360    2.1700    0.0000 C   0  0  0  0  0  0  0  0  0  0  0  0
    5.5360    1.6310    0.0000 C   0  0  0  0  0  0  0  0  0  0  0  0
    1.3370    0.0140    0.0000 C   0  0  0  0  0  0  0  0  0  0  0  0
   -0.0630   -0.5250    0.0000 C   0  0  0  0  0  0  0  0  0  0  0  0
   -5.8360    0.0200    0.0000 C   0  0  0  0  0  0  0  0  0  0  0  0
   -7.2370    0.5560    0.0000 C   0  0  0  0  0  0  0  0  0  0  0  0
   -7.4730    2.0370    0.0000 C   0  0  0  0  0  0  0  0  0  0  0  0
   -6.3080    2.9820    0.0000 C   0  0  0  0  0  0  0  0  0  0  0  0
   -6.8470    4.3820    0.0000 N   0  0  0  0  0  0  0  0  0  0  0  0
   -8.3450    4.3020    0.0000 C   0  0  0  0  0  0  0  0  0  0  0  0
   -8.7320    2.8530    0.0000 C   0  0  0  0  0  0  0  0  0  0  0  0
   -4.9070    2.4460    0.0000 C   0  0  0  0  0  0  0  0  0  0  0  0
   -4.6710    0.9650    0.0000 C   0  0  0  0  0  0  0  0  0  0  0  0
   -6.6570   -5.1960    0.0000 H   0  0  0  0  0  0  0  0  0  0  0  0
   -8.1410   -2.2900    0.0000 H   0  0  0  0  0  0  0  0  0  0  0  0
   -2.4510   -0.1600    0.0000 H   0  0  0  0  0  0  0  0  0  0  0  0
   -0.7630   -4.9700    0.0000 H   0  0  0  0  0  0  0  0  0  0  0  0
    0.6370   -4.4310    0.0000 H   0  0  0  0  0  0  0  0  0  0  0  0
    3.4370   -3.3530    0.0000 H   0  0  0  0  0  0  0  0  0  0  0  0
    3.1980    0.9340    0.0000 H   0  0  0  0  0  0  0  0  0  0  0  0
    4.2670   -1.8450    0.0000 H   0  0  0  0  0  0  0  0  0  0  0  0
    7.2430   -2.0790    0.0000 H   0  0  0  0  0  0  0  0  0  0  0  0
    5.4670   -1.9090    0.0000 H   0  0  0  0  0  0  0  0  0  0  0  0
    9.3610   -0.4100    0.0000 H   0  0  0  0  0  0  0  0  0  0  0  0
    8.1570   -1.7270    0.0000 H   0  0  0  0  0  0  0  0  0  0  0  0
   10.9020    2.3050    0.0000 H   0  0  0  0  0  0  0  0  0  0  0  0
    9.1380    3.2210    0.0000 H   0  0  0  0  0  0  0  0  0  0  0  0
   10.2080    0.4420    0.0000 H   0  0  0  0  0  0  0  0  0  0  0  0
    6.1620    3.4550    0.0000 H   0  0  0  0  0  0  0  0  0  0  0  0
    7.9390    3.2860    0.0000 H   0  0  0  0  0  0  0  0  0  0  0  0
    4.0440    1.7860    0.0000 H   0  0  0  0  0  0  0  0  0  0  0  0
    5.2490    3.1030    0.0000 H   0  0  0  0  0  0  0  0  0  0  0  0
    1.5700    1.4960    0.0000 H   0  0  0  0  0  0  0  0  0  0  0  0
   -1.2300    0.4180    0.0000 H   0  0  0  0  0  0  0  0  0  0  0  0
   -8.4020   -0.3890    0.0000 H   0  0  0  0  0  0  0  0  0  0  0  0
   -6.0310    5.6410    0.0000 H   0  0  0  0  0  0  0  0  0  0  0  0
   -9.2900    5.4670    0.0000 H   0  0  0  0  0  0  0  0  0  0  0  0
  -10.1320    2.3140    0.0000 H   0  0  0  0  0  0  0  0  0  0  0  0
   -3.7420    3.3910    0.0000 H   0  0  0  0  0  0  0  0  0  0  0  0
   -3.2150    0.6030    0.0000 H   0  0  0  0  0  0  0  0  0  0  0  0
  1  2  2  0  0  0  0
  1  9  1  0  0  0  0
  2  3  1  0  0  0  0
  2  6  1  0  0  0  0
  3  4  1  0  0  0  0
  3 33  1  0  0  0  0
  4  5  2  0  0  0  0
  4 34  1  0  0  0  0
  5  6  1  0  0  0  0
  5 24  1  0  0  0  0
  6  7  2  0  0  0  0
  7  8  1  0  0  0  0
  7 35  1  0  0  0  0
  8  9  2  0  0  0  0
  8 10  1  0  0  0  0
  9 36  1  0  0  0  0
 10 11  2  0  0  0  0
 10 23  1  0  0  0  0
 11 12  1  0  0  0  0
 11 37  1  0  0  0  0
 12 13  2  0  0  0  0
 12 38  1  0  0  0  0
 13 14  1  0  0  0  0
 13 22  1  0  0  0  0
 14 15  1  0  0  0  0
 14 39  1  0  0  0  0
 14 40  1  0  0  0  0
 15 16  1  0  0  0  0
 15 21  1  0  0  0  0
 16 17  1  0  0  0  0
 16 41  1  0  0  0  0
 16 42  1  0  0  0  0
 17 18  1  0  0  0  0
 17 43  1  0  0  0  0
 17 44  1  0  0  0  0
 18 19  1  0  0  0  0
 18 20  1  0  0  0  0
 19 45  1  0  0  0  0
 19 46  1  0  0  0  0
 19 47  1  0  0  0  0
 20 21  1  0  0  0  0
 20 48  1  0  0  0  0
 20 49  1  0  0  0  0
 21 50  1  0  0  0  0
 21 51  1  0  0  0  0
 22 23  2  0  0  0  0
 22 52  1  0  0  0  0
 23 53  1  0  0  0  0
 24 25  2  0  0  0  0
 24 32  1  0  0  0  0
 25 26  1  0  0  0  0
 25 54  1  0  0  0  0
 26 27  2  0  0  0  0
 26 30  1  0  0  0  0
 27 28  1  0  0  0  0
 27 31  1  0  0  0  0
 28 29  1  0  0  0  0
 28 55  1  0  0  0  0
 29 30  2  0  0  0  0
 29 56  1  0  0  0  0
 30 57  1  0  0  0  0
 31 32  2  0  0  0  0
 31 58  1  0  0  0  0
 32 59  1  0  0  0  0
M  END
$$$$
