2D_structures\o37_MMV1782113_2D.pdb
 OpenBabel02282413353D

 38 40  0  0  1  0  0  0  0  0999 V2000
    4.2030   -2.5870    0.0000 Cl  0  0  0  0  0  0  0  0  0  0  0  0
    3.5490   -1.2370    0.0000 C   0  0  0  0  0  0  0  0  0  0  0  0
    2.0530   -1.1290    0.0000 C   0  0  0  0  0  0  0  0  0  0  0  0
    1.3990    0.2210    0.0000 C   0  0  0  0  0  0  0  0  0  0  0  0
    2.2410    1.4630    0.0000 C   0  0  0  0  0  0  0  0  0  0  0  0
    1.5870    2.8130    0.0000 N   0  0  0  0  0  0  0  0  0  0  0  0
    0.0910    2.9210    0.0000 C   0  0  0  0  0  0  0  0  0  0  0  0
   -0.5640    4.2710    0.0000 O   0  0  0  0  0  0  0  0  0  0  0  0
   -0.7510    1.6800    0.0000 N   0  0  0  0  0  0  0  0  0  0  0  0
   -0.0970    0.3300    0.0000 C   0  0  1  0  0  0  0  0  0  0  0  0
    0.0560   -1.1630    0.0000 C   0  0  0  0  0  0  0  0  0  0  0  0
    0.7100   -2.5120    0.0000 C   0  0  0  0  0  0  0  0  0  0  0  0
    1.5520   -1.2710    0.0000 C   0  0  0  0  0  0  0  0  0  0  0  0
   -1.5400   -0.0800    0.0000 C   0  0  0  0  0  0  0  0  0  0  0  0
   -2.9830   -0.4900    0.0000 C   0  0  0  0  0  0  0  0  0  0  0  0
   -4.4260   -0.9000    0.0000 C   0  0  0  0  0  0  0  0  0  0  0  0
   -2.2470    1.7880    0.0000 C   0  0  0  0  0  0  0  0  0  0  0  0
    3.7370    1.3540    0.0000 C   0  0  0  0  0  0  0  0  0  0  0  0
    4.3910    0.0040    0.0000 C   0  0  0  0  0  0  0  0  0  0  0  0
    1.5360   -2.5370    0.0000 H   0  0  0  0  0  0  0  0  0  0  0  0
    2.4290    4.0540    0.0000 H   0  0  0  0  0  0  0  0  0  0  0  0
   -1.3260   -1.7450    0.0000 H   0  0  0  0  0  0  0  0  0  0  0  0
   -0.5060   -3.3910    0.0000 H   0  0  0  0  0  0  0  0  0  0  0  0
    1.7860   -3.5570    0.0000 H   0  0  0  0  0  0  0  0  0  0  0  0
    2.9210   -1.8850    0.0000 H   0  0  0  0  0  0  0  0  0  0  0  0
    2.2590    0.0520    0.0000 H   0  0  0  0  0  0  0  0  0  0  0  0
   -2.2870    1.2210    0.0000 H   0  0  0  0  0  0  0  0  0  0  0  0
   -1.3090   -1.5620    0.0000 H   0  0  0  0  0  0  0  0  0  0  0  0
   -3.3930    0.9530    0.0000 H   0  0  0  0  0  0  0  0  0  0  0  0
   -2.5730   -1.9330    0.0000 H   0  0  0  0  0  0  0  0  0  0  0  0
   -5.8690   -1.3100    0.0000 H   0  0  0  0  0  0  0  0  0  0  0  0
   -4.0160   -2.3430    0.0000 H   0  0  0  0  0  0  0  0  0  0  0  0
   -4.8360    0.5430    0.0000 H   0  0  0  0  0  0  0  0  0  0  0  0
   -3.7440    1.8960    0.0000 H   0  0  0  0  0  0  0  0  0  0  0  0
   -2.1390    3.2840    0.0000 H   0  0  0  0  0  0  0  0  0  0  0  0
   -2.3560    0.2920    0.0000 H   0  0  0  0  0  0  0  0  0  0  0  0
    4.5790    2.5960    0.0000 H   0  0  0  0  0  0  0  0  0  0  0  0
    5.8870   -0.1040    0.0000 H   0  0  0  0  0  0  0  0  0  0  0  0
  1  2  1  0  0  0  0
  2  3  2  0  0  0  0
  2 19  1  0  0  0  0
  3  4  1  0  0  0  0
  3 20  1  0  0  0  0
  4  5  2  0  0  0  0
  4 10  1  0  0  0  0
  5  6  1  0  0  0  0
  5 18  1  0  0  0  0
  6  7  1  0  0  0  0
  6 21  1  0  0  0  0
  7  8  2  0  0  0  0
  7  9  1  0  0  0  0
  9 10  1  0  0  0  0
  9 17  1  0  0  0  0
 10 11  1  0  0  0  0
 10 14  1  1  0  0  0
 11 12  1  0  0  0  0
 11 13  1  0  0  0  0
 11 22  1  0  0  0  0
 12 13  1  0  0  0  0
 12 23  1  0  0  0  0
 12 24  1  0  0  0  0
 13 25  1  0  0  0  0
 13 26  1  0  0  0  0
 14 15  1  0  0  0  0
 14 27  1  0  0  0  0
 14 28  1  0  0  0  0
 15 16  1  0  0  0  0
 15 29  1  0  0  0  0
 15 30  1  0  0  0  0
 16 31  1  0  0  0  0
 16 32  1  0  0  0  0
 16 33  1  0  0  0  0
 17 34  1  0  0  0  0
 17 35  1  0  0  0  0
 17 36  1  0  0  0  0
 18 19  2  0  0  0  0
 18 37  1  0  0  0  0
 19 38  1  0  0  0  0
M  END
$$$$
