2D_structures\o38_MMV1634393_2D.pdb
 OpenBabel02282413353D

 62 65  0  0  1  0  0  0  0  0999 V2000
    5.8570   -6.1740    0.0000 F   0  0  0  0  0  0  0  0  0  0  0  0
    5.3330   -4.7690    0.0000 C   0  0  0  0  0  0  0  0  0  0  0  0
    6.7390   -4.2450    0.0000 F   0  0  0  0  0  0  0  0  0  0  0  0
    3.9270   -5.2920    0.0000 F   0  0  0  0  0  0  0  0  0  0  0  0
    4.8090   -3.3630    0.0000 C   0  0  0  0  0  0  0  0  0  0  0  0
    5.7650   -2.2070    0.0000 C   0  0  0  0  0  0  0  0  0  0  0  0
    5.2410   -0.8010    0.0000 C   0  0  0  0  0  0  0  0  0  0  0  0
    3.7620   -0.5520    0.0000 C   0  0  0  0  0  0  0  0  0  0  0  0
    2.8070   -1.7080    0.0000 N   0  0  0  0  0  0  0  0  0  0  0  0
    3.3300   -3.1140    0.0000 C   0  0  0  0  0  0  0  0  0  0  0  0
    2.3750   -4.2700    0.0000 O   0  0  0  0  0  0  0  0  0  0  0  0
    1.3270   -1.4590    0.0000 C   0  0  0  0  0  0  0  0  0  0  0  0
   -0.1520   -1.2090    0.0000 C   0  0  1  0  0  0  0  0  0  0  0  0
    0.0980    0.2700    0.0000 N   0  0  0  0  0  0  0  0  0  0  0  0
    1.5030    0.7930    0.0000 C   0  0  0  0  0  0  0  0  0  0  0  0
    2.9870    1.0130    0.0000 C   0  0  0  0  0  0  0  0  0  0  0  0
    3.2360    2.4920    0.0000 C   0  0  0  0  0  0  0  0  0  0  0  0
    1.9070    3.1870    0.0000 C   0  0  0  0  0  0  0  0  0  0  0  0
    0.8360    2.1370    0.0000 C   0  0  0  0  0  0  0  0  0  0  0  0
    1.8430    4.6850    0.0000 C   0  0  0  0  0  0  0  0  0  0  0  0
    3.1090    5.4900    0.0000 C   0  0  0  0  0  0  0  0  0  0  0  0
    4.4390    4.7960    0.0000 C   0  0  0  0  0  0  0  0  0  0  0  0
    4.5030    3.2970    0.0000 C   0  0  0  0  0  0  0  0  0  0  0  0
   -1.6310   -0.9600    0.0000 C   0  0  0  0  0  0  0  0  0  0  0  0
   -2.1540    0.4460    0.0000 C   0  0  0  0  0  0  0  0  0  0  0  0
   -3.6340    0.6950    0.0000 C   0  0  0  0  0  0  0  0  0  0  0  0
   -4.5890   -0.4610    0.0000 C   0  0  0  0  0  0  0  0  0  0  0  0
   -6.0680   -0.2120    0.0000 C   0  0  0  0  0  0  0  0  0  0  0  0
   -7.5470    0.0370    0.0000 C   0  0  0  0  0  0  0  0  0  0  0  0
   -6.3180   -1.6910    0.0000 C   0  0  0  0  0  0  0  0  0  0  0  0
   -5.8190    1.2670    0.0000 C   0  0  0  0  0  0  0  0  0  0  0  0
   -4.0650   -1.8670    0.0000 C   0  0  0  0  0  0  0  0  0  0  0  0
   -2.5860   -2.1160    0.0000 C   0  0  0  0  0  0  0  0  0  0  0  0
    7.2440   -2.4560    0.0000 H   0  0  0  0  0  0  0  0  0  0  0  0
    6.1970    0.3550    0.0000 H   0  0  0  0  0  0  0  0  0  0  0  0
    3.6400    0.5350    0.0000 H   0  0  0  0  0  0  0  0  0  0  0  0
    1.7330   -0.7720    0.0000 H   0  0  0  0  0  0  0  0  0  0  0  0
    1.0780   -2.9380    0.0000 H   0  0  0  0  0  0  0  0  0  0  0  0
   -0.4010   -2.6890    0.0000 H   0  0  0  0  0  0  0  0  0  0  0  0
   -1.0590    1.2250    0.0000 H   0  0  0  0  0  0  0  0  0  0  0  0
    1.7950    0.0510    0.0000 H   0  0  0  0  0  0  0  0  0  0  0  0
    3.4110   -0.4250    0.0000 H   0  0  0  0  0  0  0  0  0  0  0  0
    4.4840    0.9200    0.0000 H   0  0  0  0  0  0  0  0  0  0  0  0
   -0.0970    3.3120    0.0000 H   0  0  0  0  0  0  0  0  0  0  0  0
   -0.5870    1.6620    0.0000 H   0  0  0  0  0  0  0  0  0  0  0  0
    0.5130    5.3800    0.0000 H   0  0  0  0  0  0  0  0  0  0  0  0
    3.0460    6.9880    0.0000 H   0  0  0  0  0  0  0  0  0  0  0  0
    5.7050    5.6000    0.0000 H   0  0  0  0  0  0  0  0  0  0  0  0
    5.8320    2.6030    0.0000 H   0  0  0  0  0  0  0  0  0  0  0  0
   -1.5070    1.7990    0.0000 H   0  0  0  0  0  0  0  0  0  0  0  0
   -4.1570    2.1010    0.0000 H   0  0  0  0  0  0  0  0  0  0  0  0
   -9.0260    0.2870    0.0000 H   0  0  0  0  0  0  0  0  0  0  0  0
   -7.4800    1.5360    0.0000 H   0  0  0  0  0  0  0  0  0  0  0  0
   -7.9750   -1.4000    0.0000 H   0  0  0  0  0  0  0  0  0  0  0  0
   -6.5670   -3.1700    0.0000 H   0  0  0  0  0  0  0  0  0  0  0  0
   -7.8160   -1.6240    0.0000 H   0  0  0  0  0  0  0  0  0  0  0  0
   -4.9430   -2.2910    0.0000 H   0  0  0  0  0  0  0  0  0  0  0  0
   -5.5690    2.7460    0.0000 H   0  0  0  0  0  0  0  0  0  0  0  0
   -7.2570    1.6950    0.0000 H   0  0  0  0  0  0  0  0  0  0  0  0
   -4.3230    1.3830    0.0000 H   0  0  0  0  0  0  0  0  0  0  0  0
   -5.0210   -3.0230    0.0000 H   0  0  0  0  0  0  0  0  0  0  0  0
   -2.0630   -3.5220    0.0000 H   0  0  0  0  0  0  0  0  0  0  0  0
  1  2  1  0  0  0  0
  2  3  1  0  0  0  0
  2  4  1  0  0  0  0
  2  5  1  0  0  0  0
  5  6  2  0  0  0  0
  5 10  1  0  0  0  0
  6  7  1  0  0  0  0
  6 34  1  0  0  0  0
  7  8  2  0  0  0  0
  7 35  1  0  0  0  0
  8  9  1  0  0  0  0
  8 36  1  0  0  0  0
  9 10  1  0  0  0  0
  9 12  1  0  0  0  0
 10 11  2  0  0  0  0
 12 13  1  0  0  0  0
 12 37  1  0  0  0  0
 12 38  1  0  0  0  0
 13 14  1  0  0  0  0
 13 24  1  0  0  0  0
 13 39  1  1  0  0  0
 14 15  1  0  0  0  0
 14 40  1  0  0  0  0
 15 16  1  0  0  0  0
 15 19  1  0  0  0  0
 15 41  1  0  0  0  0
 16 17  1  0  0  0  0
 16 42  1  0  0  0  0
 16 43  1  0  0  0  0
 17 18  2  0  0  0  0
 17 23  1  0  0  0  0
 18 19  1  0  0  0  0
 18 20  1  0  0  0  0
 19 44  1  0  0  0  0
 19 45  1  0  0  0  0
 20 21  2  0  0  0  0
 20 46  1  0  0  0  0
 21 22  1  0  0  0  0
 21 47  1  0  0  0  0
 22 23  2  0  0  0  0
 22 48  1  0  0  0  0
 23 49  1  0  0  0  0
 24 25  2  0  0  0  0
 24 33  1  0  0  0  0
 25 26  1  0  0  0  0
 25 50  1  0  0  0  0
 26 27  2  0  0  0  0
 26 51  1  0  0  0  0
 27 28  1  0  0  0  0
 27 32  1  0  0  0  0
 28 29  1  0  0  0  0
 28 30  1  0  0  0  0
 28 31  1  0  0  0  0
 29 52  1  0  0  0  0
 29 53  1  0  0  0  0
 29 54  1  0  0  0  0
 30 55  1  0  0  0  0
 30 56  1  0  0  0  0
 30 57  1  0  0  0  0
 31 58  1  0  0  0  0
 31 59  1  0  0  0  0
 31 60  1  0  0  0  0
 32 33  2  0  0  0  0
 32 61  1  0  0  0  0
 33 62  1  0  0  0  0
M  END
$$$$
