2D_structures\o39_MMV1634392_2D.pdb
 OpenBabel02282413353D

 39 40  0  0  0  0  0  0  0  0999 V2000
   -3.0350   -0.8710    0.0000 S   0  0  0  0  0  0  0  0  0  0  0  0
   -2.0870    0.2920    0.0000 C   0  0  0  0  0  0  0  0  0  0  0  0
   -2.9000    1.5530    0.0000 N   0  0  0  0  0  0  0  0  0  0  0  0
   -4.3500    1.1690    0.0000 C   0  0  0  0  0  0  0  0  0  0  0  0
   -4.4330   -0.3290    0.0000 C   0  0  0  0  0  0  0  0  0  0  0  0
   -5.6940   -1.1420    0.0000 C   0  0  0  0  0  0  0  0  0  0  0  0
   -5.6200   -2.6400    0.0000 O   0  0  0  0  0  0  0  0  0  0  0  0
   -7.0280   -0.4570    0.0000 O   0  0  0  0  0  0  0  0  0  0  0  0
   -8.2890   -1.2700    0.0000 C   0  0  0  0  0  0  0  0  0  0  0  0
   -5.5130    2.1160    0.0000 C   0  0  0  0  0  0  0  0  0  0  0  0
   -0.5890    0.2090    0.0000 C   0  0  0  0  0  0  0  0  0  0  0  0
    0.0870   -1.1300    0.0000 C   0  0  0  0  0  0  0  0  0  0  0  0
    1.5850   -1.2130    0.0000 C   0  0  0  0  0  0  0  0  0  0  0  0
    2.4060    0.0430    0.0000 C   0  0  0  0  0  0  0  0  0  0  0  0
    3.9040   -0.0400    0.0000 C   0  0  0  0  0  0  0  0  0  0  0  0
    5.4010   -0.1240    0.0000 C   0  0  0  0  0  0  0  0  0  0  0  0
    6.8990   -0.2070    0.0000 C   0  0  0  0  0  0  0  0  0  0  0  0
    8.3970   -0.2900    0.0000 C   0  0  0  0  0  0  0  0  0  0  0  0
    1.7290    1.3810    0.0000 C   0  0  0  0  0  0  0  0  0  0  0  0
    0.2310    1.4640    0.0000 C   0  0  0  0  0  0  0  0  0  0  0  0
   -9.5490   -2.0830    0.0000 H   0  0  0  0  0  0  0  0  0  0  0  0
   -9.1020   -0.0090    0.0000 H   0  0  0  0  0  0  0  0  0  0  0  0
   -7.4760   -2.5300    0.0000 H   0  0  0  0  0  0  0  0  0  0  0  0
   -6.6760    3.0640    0.0000 H   0  0  0  0  0  0  0  0  0  0  0  0
   -4.5650    3.2790    0.0000 H   0  0  0  0  0  0  0  0  0  0  0  0
   -6.4610    0.9540    0.0000 H   0  0  0  0  0  0  0  0  0  0  0  0
   -0.7330   -2.3850    0.0000 H   0  0  0  0  0  0  0  0  0  0  0  0
    2.2620   -2.5510    0.0000 H   0  0  0  0  0  0  0  0  0  0  0  0
    3.9870    1.4570    0.0000 H   0  0  0  0  0  0  0  0  0  0  0  0
    3.8210   -1.5380    0.0000 H   0  0  0  0  0  0  0  0  0  0  0  0
    5.3180   -1.6210    0.0000 H   0  0  0  0  0  0  0  0  0  0  0  0
    5.4840    1.3740    0.0000 H   0  0  0  0  0  0  0  0  0  0  0  0
    6.9820    1.2910    0.0000 H   0  0  0  0  0  0  0  0  0  0  0  0
    6.8160   -1.7040    0.0000 H   0  0  0  0  0  0  0  0  0  0  0  0
    9.8940   -0.3730    0.0000 H   0  0  0  0  0  0  0  0  0  0  0  0
    8.3140   -1.7880    0.0000 H   0  0  0  0  0  0  0  0  0  0  0  0
    8.4800    1.2080    0.0000 H   0  0  0  0  0  0  0  0  0  0  0  0
    2.5500    2.6370    0.0000 H   0  0  0  0  0  0  0  0  0  0  0  0
   -0.4450    2.8030    0.0000 H   0  0  0  0  0  0  0  0  0  0  0  0
  1  2  1  0  0  0  0
  1  5  1  0  0  0  0
  2  3  2  0  0  0  0
  2 11  1  0  0  0  0
  3  4  1  0  0  0  0
  4  5  2  0  0  0  0
  4 10  1  0  0  0  0
  5  6  1  0  0  0  0
  6  7  2  0  0  0  0
  6  8  1  0  0  0  0
  8  9  1  0  0  0  0
  9 21  1  0  0  0  0
  9 22  1  0  0  0  0
  9 23  1  0  0  0  0
 10 24  1  0  0  0  0
 10 25  1  0  0  0  0
 10 26  1  0  0  0  0
 11 12  2  0  0  0  0
 11 20  1  0  0  0  0
 12 13  1  0  0  0  0
 12 27  1  0  0  0  0
 13 14  2  0  0  0  0
 13 28  1  0  0  0  0
 14 15  1  0  0  0  0
 14 19  1  0  0  0  0
 15 16  1  0  0  0  0
 15 29  1  0  0  0  0
 15 30  1  0  0  0  0
 16 17  1  0  0  0  0
 16 31  1  0  0  0  0
 16 32  1  0  0  0  0
 17 18  1  0  0  0  0
 17 33  1  0  0  0  0
 17 34  1  0  0  0  0
 18 35  1  0  0  0  0
 18 36  1  0  0  0  0
 18 37  1  0  0  0  0
 19 20  2  0  0  0  0
 19 38  1  0  0  0  0
 20 39  1  0  0  0  0
M  END
$$$$
