2D_structures\o3_MMV1580494_2D.pdb
 OpenBabel02282413353D

102106  0  0  1  0  0  0  0  0999 V2000
    5.5080    0.7030    0.0000 O   0  0  0  0  0  0  0  0  0  0  0  0
    4.9690   -0.6970    0.0000 C   0  0  0  0  0  0  0  0  0  0  0  0
    3.5270   -1.1090    0.0000 N   0  0  0  0  0  0  0  0  0  0  0  0
    2.4490   -0.0670    0.0000 C   0  0  1  0  0  0  0  0  0  0  0  0
    1.4060   -1.1450    0.0000 C   0  0  0  0  0  0  0  0  0  0  0  0
    1.9920   -2.5260    0.0000 O   0  0  0  0  0  0  0  0  0  0  0  0
   -0.0490   -0.7810    0.0000 N   0  0  0  0  0  0  0  0  0  0  0  0
   -1.0920   -1.8600    0.0000 C   0  0  1  0  0  0  0  0  0  0  0  0
   -2.1700   -0.8170    0.0000 C   0  0  0  0  0  0  0  0  0  0  0  0
   -1.7950   -0.1130    0.0000 O   0  0  0  0  0  0  0  0  0  0  0  0
   -3.6120   -1.2300    0.0000 N   0  0  0  0  0  0  0  0  0  0  0  0
   -4.7940   -0.3050    0.0000 C   0  0  1  0  0  0  0  0  0  0  0  0
   -3.7510    0.7730    0.0000 C   0  0  0  0  0  0  0  0  0  0  0  0
   -4.3360    2.1540    0.0000 O   0  0  0  0  0  0  0  0  0  0  0  0
   -2.2960    0.4090    0.0000 N   0  0  0  0  0  0  0  0  0  0  0  0
   -1.2530    1.4880    0.0000 C   0  0  1  0  0  0  0  0  0  0  0  0
   -2.3310    2.5300    0.0000 C   0  0  0  0  0  0  0  0  0  0  0  0
   -3.8130    2.2970    0.0000 O   0  0  0  0  0  0  0  0  0  0  0  0
   -1.9680    3.9850    0.0000 C   0  0  0  0  0  0  0  0  0  0  0  0
   -0.4860    4.2190    0.0000 O   0  0  0  0  0  0  0  0  0  0  0  0
   -3.0460    5.0280    0.0000 N   0  0  0  0  0  0  0  0  0  0  0  0
   -2.6820    6.4830    0.0000 C   0  0  0  0  0  0  0  0  0  0  0  0
   -1.8430    7.7260    0.0000 C   0  0  0  0  0  0  0  0  0  0  0  0
   -1.1860    6.3780    0.0000 C   0  0  0  0  0  0  0  0  0  0  0  0
   -0.1750    0.4450    0.0000 C   0  0  0  0  0  0  0  0  0  0  0  0
    0.9040   -0.5980    0.0000 C   0  0  0  0  0  0  0  0  0  0  0  0
    1.9820   -1.6400    0.0000 C   0  0  0  0  0  0  0  0  0  0  0  0
   -6.0380   -1.1430    0.0000 C   0  0  1  0  0  0  0  0  0  0  0  0
   -7.5370   -1.0900    0.0000 C   0  0  0  0  0  0  0  0  0  0  0  0
   -8.0510   -2.4990    0.0000 C   0  0  0  0  0  0  0  0  0  0  0  0
   -6.8690   -3.4240    0.0000 C   0  0  0  0  0  0  0  0  0  0  0  0
   -5.6250   -2.5860    0.0000 C   0  0  1  0  0  0  0  0  0  0  0  0
   -4.1260   -2.6390    0.0000 C   0  0  0  0  0  0  0  0  0  0  0  0
   -0.0130   -2.9020    0.0000 C   0  0  0  0  0  0  0  0  0  0  0  0
    1.0650   -3.9450    0.0000 C   0  0  0  0  0  0  0  0  0  0  0  0
    1.0290   -1.8240    0.0000 C   0  0  0  0  0  0  0  0  0  0  0  0
   -1.0560   -3.9810    0.0000 C   0  0  0  0  0  0  0  0  0  0  0  0
    3.4920    1.0120    0.0000 C   0  0  0  0  0  0  0  0  0  0  0  0
    2.2490    1.8510    0.0000 C   0  0  0  0  0  0  0  0  0  0  0  0
    2.3540    3.3470    0.0000 C   0  0  0  0  0  0  0  0  0  0  0  0
    3.7030    4.0040    0.0000 C   0  0  0  0  0  0  0  0  0  0  0  0
    4.9460    3.1650    0.0000 C   0  0  0  0  0  0  0  0  0  0  0  0
    4.8400    1.6680    0.0000 C   0  0  0  0  0  0  0  0  0  0  0  0
    6.0480   -1.7400    0.0000 C   0  0  0  0  0  0  0  0  0  0  0  0
    5.6840   -3.1950    0.0000 N   0  0  0  0  0  0  0  0  0  0  0  0
    6.7620   -4.2370    0.0000 C   0  0  0  0  0  0  0  0  0  0  0  0
    8.2050   -3.8250    0.0000 C   0  0  0  0  0  0  0  0  0  0  0  0
    8.5680   -2.3700    0.0000 N   0  0  0  0  0  0  0  0  0  0  0  0
    7.4900   -1.3270    0.0000 C   0  0  0  0  0  0  0  0  0  0  0  0
    3.3440   -2.5980    0.0000 H   0  0  0  0  0  0  0  0  0  0  0  0
    1.5060    1.1000    0.0000 H   0  0  0  0  0  0  0  0  0  0  0  0
   -0.1000    0.7180    0.0000 H   0  0  0  0  0  0  0  0  0  0  0  0
   -2.1340   -2.9380    0.0000 H   0  0  0  0  0  0  0  0  0  0  0  0
   -5.6100    0.9530    0.0000 H   0  0  0  0  0  0  0  0  0  0  0  0
   -1.7100   -0.9720    0.0000 H   0  0  0  0  0  0  0  0  0  0  0  0
   -0.2100    2.5660    0.0000 H   0  0  0  0  0  0  0  0  0  0  0  0
   -4.4880    4.6160    0.0000 H   0  0  0  0  0  0  0  0  0  0  0  0
   -4.0520    7.0940    0.0000 H   0  0  0  0  0  0  0  0  0  0  0  0
   -2.9210    8.7690    0.0000 H   0  0  0  0  0  0  0  0  0  0  0  0
   -0.6280    8.6070    0.0000 H   0  0  0  0  0  0  0  0  0  0  0  0
    0.2560    6.7900    0.0000 H   0  0  0  0  0  0  0  0  0  0  0  0
   -0.8490    4.9160    0.0000 H   0  0  0  0  0  0  0  0  0  0  0  0
    0.5760    1.7440    0.0000 H   0  0  0  0  0  0  0  0  0  0  0  0
   -1.0780   -0.7520    0.0000 H   0  0  0  0  0  0  0  0  0  0  0  0
    0.0000   -1.7950    0.0000 H   0  0  0  0  0  0  0  0  0  0  0  0
    1.3180    0.8440    0.0000 H   0  0  0  0  0  0  0  0  0  0  0  0
    2.9250   -2.8070    0.0000 H   0  0  0  0  0  0  0  0  0  0  0  0
    3.4090   -1.1780    0.0000 H   0  0  0  0  0  0  0  0  0  0  0  0
    1.0790   -2.8380    0.0000 H   0  0  0  0  0  0  0  0  0  0  0  0
   -6.4500    0.2990    0.0000 H   0  0  0  0  0  0  0  0  0  0  0  0
   -7.5100    0.4100    0.0000 H   0  0  0  0  0  0  0  0  0  0  0  0
   -8.9920   -0.7260    0.0000 H   0  0  0  0  0  0  0  0  0  0  0  0
   -9.3980   -1.8410    0.0000 H   0  0  0  0  0  0  0  0  0  0  0  0
   -8.8460   -3.7710    0.0000 H   0  0  0  0  0  0  0  0  0  0  0  0
   -7.9120   -4.5020    0.0000 H   0  0  0  0  0  0  0  0  0  0  0  0
   -6.0530   -4.6820    0.0000 H   0  0  0  0  0  0  0  0  0  0  0  0
   -5.2120   -4.0280    0.0000 H   0  0  0  0  0  0  0  0  0  0  0  0
   -4.1530   -4.1390    0.0000 H   0  0  0  0  0  0  0  0  0  0  0  0
   -2.6710   -3.0030    0.0000 H   0  0  0  0  0  0  0  0  0  0  0  0
    2.1440   -4.9880    0.0000 H   0  0  0  0  0  0  0  0  0  0  0  0
    2.3380   -3.1510    0.0000 H   0  0  0  0  0  0  0  0  0  0  0  0
    0.1620   -5.1420    0.0000 H   0  0  0  0  0  0  0  0  0  0  0  0
    2.4560   -1.3620    0.0000 H   0  0  0  0  0  0  0  0  0  0  0  0
    2.1080   -2.8670    0.0000 H   0  0  0  0  0  0  0  0  0  0  0  0
    0.0860   -0.6580    0.0000 H   0  0  0  0  0  0  0  0  0  0  0  0
   -2.0990   -5.0590    0.0000 H   0  0  0  0  0  0  0  0  0  0  0  0
   -0.1130   -5.1470    0.0000 H   0  0  0  0  0  0  0  0  0  0  0  0
   -2.1340   -2.9380    0.0000 H   0  0  0  0  0  0  0  0  0  0  0  0
    4.6400    0.0470    0.0000 H   0  0  0  0  0  0  0  0  0  0  0  0
    0.8490    2.3900    0.0000 H   0  0  0  0  0  0  0  0  0  0  0  0
    1.3240    0.6700    0.0000 H   0  0  0  0  0  0  0  0  0  0  0  0
    1.9420    4.7900    0.0000 H   0  0  0  0  0  0  0  0  0  0  0  0
    0.8620    3.1920    0.0000 H   0  0  0  0  0  0  0  0  0  0  0  0
    4.7450    5.0830    0.0000 H   0  0  0  0  0  0  0  0  0  0  0  0
    2.8220    5.2180    0.0000 H   0  0  0  0  0  0  0  0  0  0  0  0
    6.4010    2.8010    0.0000 H   0  0  0  0  0  0  0  0  0  0  0  0
    5.5570    4.5350    0.0000 H   0  0  0  0  0  0  0  0  0  0  0  0
    5.4260    0.2870    0.0000 H   0  0  0  0  0  0  0  0  0  0  0  0
    6.3320    1.8240    0.0000 H   0  0  0  0  0  0  0  0  0  0  0  0
    6.3990   -5.6930    0.0000 H   0  0  0  0  0  0  0  0  0  0  0  0
    9.2830   -4.8680    0.0000 H   0  0  0  0  0  0  0  0  0  0  0  0
    7.8540    0.1280    0.0000 H   0  0  0  0  0  0  0  0  0  0  0  0
  1  2  2  0  0  0  0
  2  3  1  0  0  0  0
  2 44  1  0  0  0  0
  3  4  1  0  0  0  0
  3 50  1  0  0  0  0
  4  5  1  0  0  0  0
  4 38  1  0  0  0  0
  4 51  1  6  0  0  0
  5  6  2  0  0  0  0
  5  7  1  0  0  0  0
  7  8  1  0  0  0  0
  7 52  1  0  0  0  0
  8  9  1  0  0  0  0
  8 34  1  0  0  0  0
  8 53  1  1  0  0  0
  9 10  2  0  0  0  0
  9 11  1  0  0  0  0
 11 12  1  0  0  0  0
 11 33  1  0  0  0  0
 12 13  1  0  0  0  0
 12 28  1  0  0  0  0
 12 54  1  1  0  0  0
 13 14  2  0  0  0  0
 13 15  1  0  0  0  0
 15 16  1  0  0  0  0
 15 55  1  0  0  0  0
 16 17  1  0  0  0  0
 16 25  1  0  0  0  0
 16 56  1  6  0  0  0
 17 18  2  0  0  0  0
 17 19  1  0  0  0  0
 19 20  2  0  0  0  0
 19 21  1  0  0  0  0
 21 22  1  0  0  0  0
 21 57  1  0  0  0  0
 22 23  1  0  0  0  0
 22 24  1  0  0  0  0
 22 58  1  0  0  0  0
 23 24  1  0  0  0  0
 23 59  1  0  0  0  0
 23 60  1  0  0  0  0
 24 61  1  0  0  0  0
 24 62  1  0  0  0  0
 25 26  1  0  0  0  0
 25 63  1  0  0  0  0
 25 64  1  0  0  0  0
 26 27  1  0  0  0  0
 26 65  1  0  0  0  0
 26 66  1  0  0  0  0
 27 67  1  0  0  0  0
 27 68  1  0  0  0  0
 27 69  1  0  0  0  0
 28 29  1  0  0  0  0
 28 32  1  0  0  0  0
 28 70  1  1  0  0  0
 29 30  1  0  0  0  0
 29 71  1  0  0  0  0
 29 72  1  0  0  0  0
 30 31  1  0  0  0  0
 30 73  1  0  0  0  0
 30 74  1  0  0  0  0
 31 32  1  0  0  0  0
 31 75  1  0  0  0  0
 31 76  1  0  0  0  0
 32 33  1  0  0  0  0
 32 77  1  1  0  0  0
 33 78  1  0  0  0  0
 33 79  1  0  0  0  0
 34 35  1  0  0  0  0
 34 36  1  0  0  0  0
 34 37  1  0  0  0  0
 35 80  1  0  0  0  0
 35 81  1  0  0  0  0
 35 82  1  0  0  0  0
 36 83  1  0  0  0  0
 36 84  1  0  0  0  0
 36 85  1  0  0  0  0
 37 86  1  0  0  0  0
 37 87  1  0  0  0  0
 37 88  1  0  0  0  0
 38 39  1  0  0  0  0
 38 43  1  0  0  0  0
 38 89  1  0  0  0  0
 39 40  1  0  0  0  0
 39 90  1  0  0  0  0
 39 91  1  0  0  0  0
 40 41  1  0  0  0  0
 40 92  1  0  0  0  0
 40 93  1  0  0  0  0
 41 42  1  0  0  0  0
 41 94  1  0  0  0  0
 41 95  1  0  0  0  0
 42 43  1  0  0  0  0
 42 96  1  0  0  0  0
 42 97  1  0  0  0  0
 43 98  1  0  0  0  0
 43 99  1  0  0  0  0
 44 45  2  0  0  0  0
 44 49  1  0  0  0  0
 45 46  1  0  0  0  0
 46 47  2  0  0  0  0
 46100  1  0  0  0  0
 47 48  1  0  0  0  0
 47101  1  0  0  0  0
 48 49  2  0  0  0  0
 49102  1  0  0  0  0
M  END
$$$$
