2D_structures\o42_MMV1593544_2D.pdb
 OpenBabel02282413353D

 87 91  0  0  1  0  0  0  0  0999 V2000
   -1.1860    1.1300    0.0000 O   0  0  0  0  0  0  0  0  0  0  0  0
   -0.3900    1.7080    0.0000 C   0  0  0  0  0  0  0  0  0  0  0  0
   -0.9020    3.1180    0.0000 N   0  0  0  0  0  0  0  0  0  0  0  0
   -2.3790    3.3790    0.0000 C   0  0  0  0  0  0  0  0  0  0  0  0
   -1.8650    4.7880    0.0000 C   0  0  0  0  0  0  0  0  0  0  0  0
   -2.8290    5.9380    0.0000 C   0  0  0  0  0  0  0  0  0  0  0  0
   -4.3060    5.6780    0.0000 C   0  0  0  0  0  0  0  0  0  0  0  0
   -4.8200    4.2690    0.0000 C   0  0  0  0  0  0  0  0  0  0  0  0
   -3.8560    3.1190    0.0000 C   0  0  0  0  0  0  0  0  0  0  0  0
    1.0870    1.4470    0.0000 C   0  0  1  0  0  0  0  0  0  0  0  0
    0.8260   -0.0310    0.0000 N   0  0  0  0  0  0  0  0  0  0  0  0
   -0.5840   -0.5430    0.0000 C   0  0  0  0  0  0  0  0  0  0  0  0
   -0.8450   -2.0200    0.0000 C   0  0  0  0  0  0  0  0  0  0  0  0
   -2.2550   -2.5320    0.0000 C   0  0  0  0  0  0  0  0  0  0  0  0
   -3.4040   -1.5670    0.0000 C   0  0  0  0  0  0  0  0  0  0  0  0
   -4.8130   -2.0790    0.0000 C   0  0  0  0  0  0  0  0  0  0  0  0
   -6.2230   -2.5920    0.0000 C   0  0  0  0  0  0  0  0  0  0  0  0
   -5.3260   -0.6700    0.0000 C   0  0  0  0  0  0  0  0  0  0  0  0
   -3.1420   -0.0900    0.0000 C   0  0  0  0  0  0  0  0  0  0  0  0
   -1.7320    0.4220    0.0000 C   0  0  0  0  0  0  0  0  0  0  0  0
    1.9750   -0.9950    0.0000 C   0  0  0  0  0  0  0  0  0  0  0  0
    2.7670   -0.9130    0.0000 O   0  0  0  0  0  0  0  0  0  0  0  0
    1.7130   -2.4720    0.0000 C   0  0  0  0  0  0  0  0  0  0  0  0
    1.4520   -3.9490    0.0000 C   0  0  0  0  0  0  0  0  0  0  0  0
    2.4930   -5.0290    0.0000 C   0  0  0  0  0  0  0  0  0  0  0  0
    1.7880   -6.3530    0.0000 N   0  0  0  0  0  0  0  0  0  0  0  0
    0.3110   -6.0920    0.0000 C   0  0  0  0  0  0  0  0  0  0  0  0
    0.1030   -4.6060    0.0000 C   0  0  0  0  0  0  0  0  0  0  0  0
   -1.2870   -4.0440    0.0000 C   0  0  0  0  0  0  0  0  0  0  0  0
   -2.4700   -4.9660    0.0000 C   0  0  0  0  0  0  0  0  0  0  0  0
   -2.2620   -6.4520    0.0000 C   0  0  0  0  0  0  0  0  0  0  0  0
   -0.8710   -7.0150    0.0000 C   0  0  0  0  0  0  0  0  0  0  0  0
    2.5640    1.1850    0.0000 C   0  0  0  0  0  0  0  0  0  0  0  0
    3.0770   -0.2250    0.0000 C   0  0  0  0  0  0  0  0  0  0  0  0
    4.5540   -0.4860    0.0000 C   0  0  0  0  0  0  0  0  0  0  0  0
    5.5190    0.6630    0.0000 C   0  0  0  0  0  0  0  0  0  0  0  0
    6.9960    0.4010    0.0000 O   0  0  0  0  0  0  0  0  0  0  0  0
    7.9600    1.5500    0.0000 C   0  0  0  0  0  0  0  0  0  0  0  0
    5.0060    2.0720    0.0000 C   0  0  0  0  0  0  0  0  0  0  0  0
    3.5290    2.3340    0.0000 C   0  0  0  0  0  0  0  0  0  0  0  0
    5.9710    3.2210    0.0000 O   0  0  0  0  0  0  0  0  0  0  0  0
    5.4590    4.6310    0.0000 C   0  0  0  0  0  0  0  0  0  0  0  0
    5.0660   -1.8960    0.0000 O   0  0  0  0  0  0  0  0  0  0  0  0
    6.5430   -2.1570    0.0000 C   0  0  0  0  0  0  0  0  0  0  0  0
    0.1960    4.1400    0.0000 H   0  0  0  0  0  0  0  0  0  0  0  0
   -2.1970    1.8900    0.0000 H   0  0  0  0  0  0  0  0  0  0  0  0
   -0.9000    5.9370    0.0000 H   0  0  0  0  0  0  0  0  0  0  0  0
   -0.4850    4.2010    0.0000 H   0  0  0  0  0  0  0  0  0  0  0  0
   -3.3410    7.3480    0.0000 H   0  0  0  0  0  0  0  0  0  0  0  0
   -1.5290    6.6870    0.0000 H   0  0  0  0  0  0  0  0  0  0  0  0
   -5.7830    5.9400    0.0000 H   0  0  0  0  0  0  0  0  0  0  0  0
   -4.3050    7.1780    0.0000 H   0  0  0  0  0  0  0  0  0  0  0  0
   -5.7850    3.1210    0.0000 H   0  0  0  0  0  0  0  0  0  0  0  0
   -6.1180    5.0200    0.0000 H   0  0  0  0  0  0  0  0  0  0  0  0
   -3.3440    1.7100    0.0000 H   0  0  0  0  0  0  0  0  0  0  0  0
   -5.1560    2.3700    0.0000 H   0  0  0  0  0  0  0  0  0  0  0  0
    1.3490    2.9240    0.0000 H   0  0  0  0  0  0  0  0  0  0  0  0
    0.4120   -2.8370    0.0000 H   0  0  0  0  0  0  0  0  0  0  0  0
   -2.5160   -4.0090    0.0000 H   0  0  0  0  0  0  0  0  0  0  0  0
   -4.3010   -3.4890    0.0000 H   0  0  0  0  0  0  0  0  0  0  0  0
   -7.6330   -3.1040    0.0000 H   0  0  0  0  0  0  0  0  0  0  0  0
   -5.7110   -4.0010    0.0000 H   0  0  0  0  0  0  0  0  0  0  0  0
   -6.9030   -1.2550    0.0000 H   0  0  0  0  0  0  0  0  0  0  0  0
   -5.8380    0.7400    0.0000 H   0  0  0  0  0  0  0  0  0  0  0  0
   -6.7870   -1.0060    0.0000 H   0  0  0  0  0  0  0  0  0  0  0  0
   -4.0820    0.1690    0.0000 H   0  0  0  0  0  0  0  0  0  0  0  0
   -4.2910    0.8750    0.0000 H   0  0  0  0  0  0  0  0  0  0  0  0
   -1.2930    1.8560    0.0000 H   0  0  0  0  0  0  0  0  0  0  0  0
    0.2790   -2.0330    0.0000 H   0  0  0  0  0  0  0  0  0  0  0  0
    3.1900   -2.7340    0.0000 H   0  0  0  0  0  0  0  0  0  0  0  0
    3.9790   -4.8210    0.0000 H   0  0  0  0  0  0  0  0  0  0  0  0
    2.4450   -7.7020    0.0000 H   0  0  0  0  0  0  0  0  0  0  0  0
   -1.8480   -2.6520    0.0000 H   0  0  0  0  0  0  0  0  0  0  0  0
   -3.8600   -4.4040    0.0000 H   0  0  0  0  0  0  0  0  0  0  0  0
   -3.4440   -7.3750    0.0000 H   0  0  0  0  0  0  0  0  0  0  0  0
   -0.6630   -8.5000    0.0000 H   0  0  0  0  0  0  0  0  0  0  0  0
    2.4180   -1.5720    0.0000 H   0  0  0  0  0  0  0  0  0  0  0  0
    8.9250    2.6980    0.0000 H   0  0  0  0  0  0  0  0  0  0  0  0
    9.1090    0.5850    0.0000 H   0  0  0  0  0  0  0  0  0  0  0  0
    6.8120    2.5150    0.0000 H   0  0  0  0  0  0  0  0  0  0  0  0
    3.0170    3.7440    0.0000 H   0  0  0  0  0  0  0  0  0  0  0  0
    4.9470    6.0410    0.0000 H   0  0  0  0  0  0  0  0  0  0  0  0
    6.8690    5.1430    0.0000 H   0  0  0  0  0  0  0  0  0  0  0  0
    4.0490    4.1180    0.0000 H   0  0  0  0  0  0  0  0  0  0  0  0
    8.0200   -2.4180    0.0000 H   0  0  0  0  0  0  0  0  0  0  0  0
    6.2820   -3.6340    0.0000 H   0  0  0  0  0  0  0  0  0  0  0  0
    6.8040   -0.6800    0.0000 H   0  0  0  0  0  0  0  0  0  0  0  0
  1  2  2  0  0  0  0
  2  3  1  0  0  0  0
  2 10  1  0  0  0  0
  3  4  1  0  0  0  0
  3 45  1  0  0  0  0
  4  5  1  0  0  0  0
  4  9  1  0  0  0  0
  4 46  1  0  0  0  0
  5  6  1  0  0  0  0
  5 47  1  0  0  0  0
  5 48  1  0  0  0  0
  6  7  1  0  0  0  0
  6 49  1  0  0  0  0
  6 50  1  0  0  0  0
  7  8  1  0  0  0  0
  7 51  1  0  0  0  0
  7 52  1  0  0  0  0
  8  9  1  0  0  0  0
  8 53  1  0  0  0  0
  8 54  1  0  0  0  0
  9 55  1  0  0  0  0
  9 56  1  0  0  0  0
 10 11  1  0  0  0  0
 10 33  1  0  0  0  0
 10 57  1  1  0  0  0
 11 12  1  0  0  0  0
 11 21  1  0  0  0  0
 12 13  2  0  0  0  0
 12 20  1  0  0  0  0
 13 14  1  0  0  0  0
 13 58  1  0  0  0  0
 14 15  2  0  0  0  0
 14 59  1  0  0  0  0
 15 16  1  0  0  0  0
 15 19  1  0  0  0  0
 16 17  1  0  0  0  0
 16 18  1  0  0  0  0
 16 60  1  0  0  0  0
 17 61  1  0  0  0  0
 17 62  1  0  0  0  0
 17 63  1  0  0  0  0
 18 64  1  0  0  0  0
 18 65  1  0  0  0  0
 18 66  1  0  0  0  0
 19 20  2  0  0  0  0
 19 67  1  0  0  0  0
 20 68  1  0  0  0  0
 21 22  2  0  0  0  0
 21 23  1  0  0  0  0
 23 24  1  0  0  0  0
 23 69  1  0  0  0  0
 23 70  1  0  0  0  0
 24 25  2  0  0  0  0
 24 28  1  0  0  0  0
 25 26  1  0  0  0  0
 25 71  1  0  0  0  0
 26 27  1  0  0  0  0
 26 72  1  0  0  0  0
 27 28  2  0  0  0  0
 27 32  1  0  0  0  0
 28 29  1  0  0  0  0
 29 30  2  0  0  0  0
 29 73  1  0  0  0  0
 30 31  1  0  0  0  0
 30 74  1  0  0  0  0
 31 32  2  0  0  0  0
 31 75  1  0  0  0  0
 32 76  1  0  0  0  0
 33 34  2  0  0  0  0
 33 40  1  0  0  0  0
 34 35  1  0  0  0  0
 34 77  1  0  0  0  0
 35 36  2  0  0  0  0
 35 43  1  0  0  0  0
 36 37  1  0  0  0  0
 36 39  1  0  0  0  0
 37 38  1  0  0  0  0
 38 78  1  0  0  0  0
 38 79  1  0  0  0  0
 38 80  1  0  0  0  0
 39 40  2  0  0  0  0
 39 41  1  0  0  0  0
 40 81  1  0  0  0  0
 41 42  1  0  0  0  0
 42 82  1  0  0  0  0
 42 83  1  0  0  0  0
 42 84  1  0  0  0  0
 43 44  1  0  0  0  0
 44 85  1  0  0  0  0
 44 86  1  0  0  0  0
 44 87  1  0  0  0  0
M  END
$$$$
