2D_structures\o43_MMV1593521_2D.pdb
 OpenBabel02282413353D

 43 45  0  0  1  0  0  0  0  0999 V2000
   -0.1240    6.2210    0.0000 Cl  0  0  0  0  0  0  0  0  0  0  0  0
   -0.0960    4.7210    0.0000 C   0  0  0  0  0  0  0  0  0  0  0  0
    1.2170    3.9960    0.0000 C   0  0  0  0  0  0  0  0  0  0  0  0
    2.5020    4.7700    0.0000 Cl  0  0  0  0  0  0  0  0  0  0  0  0
    1.2460    2.4960    0.0000 C   0  0  0  0  0  0  0  0  0  0  0  0
   -0.0380    1.7210    0.0000 C   0  0  0  0  0  0  0  0  0  0  0  0
   -0.3220    0.2490    0.0000 N   0  0  0  0  0  0  0  0  0  0  0  0
    0.7020   -0.8470    0.0000 C   0  0  1  0  0  0  0  0  0  0  0  0
    1.4770   -2.1310    0.0000 O   0  0  0  0  0  0  0  0  0  0  0  0
    2.9380   -1.7920    0.0000 C   0  0  1  0  0  0  0  0  0  0  0  0
    3.1230   -3.2800    0.0000 C   0  0  0  0  0  0  0  0  0  0  0  0
    3.3090   -4.7690    0.0000 O   0  0  0  0  0  0  0  0  0  0  0  0
    3.0660   -0.2970    0.0000 C   0  0  1  0  0  0  0  0  0  0  0  0
    1.6850    0.2870    0.0000 C   0  0  1  0  0  0  0  0  0  0  0  0
    2.4100    1.6000    0.0000 O   0  0  0  0  0  0  0  0  0  0  0  0
    4.5390   -0.5810    0.0000 O   0  0  0  0  0  0  0  0  0  0  0  0
   -1.8110    0.0630    0.0000 C   0  0  0  0  0  0  0  0  0  0  0  0
   -2.4470    1.4220    0.0000 N   0  0  0  0  0  0  0  0  0  0  0  0
   -1.3520    2.4470    0.0000 C   0  0  0  0  0  0  0  0  0  0  0  0
   -1.3800    3.9460    0.0000 C   0  0  0  0  0  0  0  0  0  0  0  0
   -2.5360   -1.2500    0.0000 N   0  0  0  0  0  0  0  0  0  0  0  0
   -4.0360   -1.2780    0.0000 C   0  0  0  0  0  0  0  0  0  0  0  0
   -4.0640    0.2210    0.0000 C   0  0  0  0  0  0  0  0  0  0  0  0
   -4.0070   -2.7780    0.0000 C   0  0  0  0  0  0  0  0  0  0  0  0
    2.0160    2.2910    0.0000 H   0  0  0  0  0  0  0  0  0  0  0  0
   -0.4940   -1.7510    0.0000 H   0  0  0  0  0  0  0  0  0  0  0  0
    4.4380   -1.7630    0.0000 H   0  0  0  0  0  0  0  0  0  0  0  0
    4.6120   -3.0950    0.0000 H   0  0  0  0  0  0  0  0  0  0  0  0
    1.6350   -3.4650    0.0000 H   0  0  0  0  0  0  0  0  0  0  0  0
    2.1120   -5.6730    0.0000 H   0  0  0  0  0  0  0  0  0  0  0  0
    3.6740    1.0740    0.0000 H   0  0  0  0  0  0  0  0  0  0  0  0
    0.6990    1.4170    0.0000 H   0  0  0  0  0  0  0  0  0  0  0  0
    3.8950    1.8110    0.0000 H   0  0  0  0  0  0  0  0  0  0  0  0
    5.5220    0.5530    0.0000 H   0  0  0  0  0  0  0  0  0  0  0  0
   -2.6930    4.6710    0.0000 H   0  0  0  0  0  0  0  0  0  0  0  0
   -1.6100   -2.4300    0.0000 H   0  0  0  0  0  0  0  0  0  0  0  0
   -5.5350   -1.3070    0.0000 H   0  0  0  0  0  0  0  0  0  0  0  0
   -4.0930    1.7210    0.0000 H   0  0  0  0  0  0  0  0  0  0  0  0
   -5.5640    0.1930    0.0000 H   0  0  0  0  0  0  0  0  0  0  0  0
   -2.6160    0.6120    0.0000 H   0  0  0  0  0  0  0  0  0  0  0  0
   -3.9780   -4.2780    0.0000 H   0  0  0  0  0  0  0  0  0  0  0  0
   -5.5070   -2.8070    0.0000 H   0  0  0  0  0  0  0  0  0  0  0  0
   -2.5150   -2.9320    0.0000 H   0  0  0  0  0  0  0  0  0  0  0  0
  1  2  1  0  0  0  0
  2  3  2  0  0  0  0
  2 20  1  0  0  0  0
  3  4  1  0  0  0  0
  3  5  1  0  0  0  0
  5  6  2  0  0  0  0
  5 25  1  0  0  0  0
  6  7  1  0  0  0  0
  6 19  1  0  0  0  0
  7  8  1  0  0  0  0
  7 17  1  0  0  0  0
  8  9  1  0  0  0  0
  8 14  1  0  0  0  0
  8 26  1  1  0  0  0
  9 10  1  0  0  0  0
 10 11  1  0  0  0  0
 10 13  1  0  0  0  0
 10 27  1  1  0  0  0
 11 12  1  0  0  0  0
 11 28  1  0  0  0  0
 11 29  1  0  0  0  0
 12 30  1  0  0  0  0
 13 14  1  0  0  0  0
 13 16  1  0  0  0  0
 13 31  1  6  0  0  0
 14 15  1  0  0  0  0
 14 32  1  1  0  0  0
 15 33  1  0  0  0  0
 16 34  1  0  0  0  0
 17 18  2  0  0  0  0
 17 21  1  0  0  0  0
 18 19  1  0  0  0  0
 19 20  2  0  0  0  0
 20 35  1  0  0  0  0
 21 22  1  0  0  0  0
 21 36  1  0  0  0  0
 22 23  1  0  0  0  0
 22 24  1  0  0  0  0
 22 37  1  0  0  0  0
 23 38  1  0  0  0  0
 23 39  1  0  0  0  0
 23 40  1  0  0  0  0
 24 41  1  0  0  0  0
 24 42  1  0  0  0  0
 24 43  1  0  0  0  0
M  END
$$$$
