2D_structures\o51_MMV658803_2D.pdb
 OpenBabel02282413353D

 56 60  0  0  1  0  0  0  0  0999 V2000
    5.6160   -5.1250    0.0000 Cl  0  0  0  0  0  0  0  0  0  0  0  0
    4.3650   -4.2960    0.0000 C   0  0  0  0  0  0  0  0  0  0  0  0
    4.4570   -2.7990    0.0000 C   0  0  0  0  0  0  0  0  0  0  0  0
    3.2070   -1.9710    0.0000 C   0  0  0  0  0  0  0  0  0  0  0  0
    1.8640   -2.6390    0.0000 C   0  0  0  0  0  0  0  0  0  0  0  0
    1.7720   -4.1360    0.0000 C   0  0  0  0  0  0  0  0  0  0  0  0
    3.0220   -4.9650    0.0000 C   0  0  0  0  0  0  0  0  0  0  0  0
    3.2990   -0.4730    0.0000 C   0  0  0  0  0  0  0  0  0  0  0  0
    4.6420    0.1950    0.0000 C   0  0  0  0  0  0  0  0  0  0  0  0
    4.7340    1.6930    0.0000 C   0  0  0  0  0  0  0  0  0  0  0  0
    6.0770    2.3610    0.0000 O   0  0  0  0  0  0  0  0  0  0  0  0
    3.4840    2.5210    0.0000 N   0  0  0  0  0  0  0  0  0  0  0  0
    2.1410    1.8520    0.0000 C   0  0  0  0  0  0  0  0  0  0  0  0
    2.0490    0.3550    0.0000 C   0  0  0  0  0  0  0  0  0  0  0  0
    0.7060   -0.3140    0.0000 C   0  0  0  0  0  0  0  0  0  0  0  0
   -0.5450    0.5150    0.0000 C   0  0  0  0  0  0  0  0  0  0  0  0
   -1.8870   -0.1540    0.0000 C   0  0  1  0  0  0  0  0  0  0  0  0
   -1.2190   -1.4970    0.0000 N   0  0  0  0  0  0  0  0  0  0  0  0
   -3.2300   -0.8230    0.0000 C   0  0  0  0  0  0  0  0  0  0  0  0
   -4.4800    0.0060    0.0000 C   0  0  0  0  0  0  0  0  0  0  0  0
   -5.8230   -0.6630    0.0000 C   0  0  0  0  0  0  0  0  0  0  0  0
   -5.9150   -2.1600    0.0000 C   0  0  0  0  0  0  0  0  0  0  0  0
   -7.2580   -2.8290    0.0000 Cl  0  0  0  0  0  0  0  0  0  0  0  0
   -4.6650   -2.9880    0.0000 C   0  0  0  0  0  0  0  0  0  0  0  0
   -3.3220   -2.3200    0.0000 C   0  0  0  0  0  0  0  0  0  0  0  0
   -2.5560    1.1890    0.0000 C   0  0  0  0  0  0  0  0  0  0  0  0
   -4.0350    1.4370    0.0000 C   0  0  0  0  0  0  0  0  0  0  0  0
   -4.2560    2.9210    0.0000 N   0  0  0  0  0  0  0  0  0  0  0  0
   -2.9140    3.5890    0.0000 C   0  0  0  0  0  0  0  0  0  0  0  0
   -1.8630    2.5190    0.0000 N   0  0  0  0  0  0  0  0  0  0  0  0
   -0.3790    2.7400    0.0000 C   0  0  0  0  0  0  0  0  0  0  0  0
   -0.4520    2.0120    0.0000 C   0  0  0  0  0  0  0  0  0  0  0  0
    0.8900    2.6810    0.0000 C   0  0  0  0  0  0  0  0  0  0  0  0
    3.5760    4.0180    0.0000 C   0  0  0  0  0  0  0  0  0  0  0  0
    5.8000   -2.1300    0.0000 H   0  0  0  0  0  0  0  0  0  0  0  0
    1.1260   -2.1500    0.0000 H   0  0  0  0  0  0  0  0  0  0  0  0
    0.4290   -4.8050    0.0000 H   0  0  0  0  0  0  0  0  0  0  0  0
    2.9300   -6.4620    0.0000 H   0  0  0  0  0  0  0  0  0  0  0  0
    5.8920   -0.6330    0.0000 H   0  0  0  0  0  0  0  0  0  0  0  0
    0.6570   -1.1090    0.0000 H   0  0  0  0  0  0  0  0  0  0  0  0
   -1.8880   -2.8390    0.0000 H   0  0  0  0  0  0  0  0  0  0  0  0
    0.1290   -1.5800    0.0000 H   0  0  0  0  0  0  0  0  0  0  0  0
   -4.7530    1.4810    0.0000 H   0  0  0  0  0  0  0  0  0  0  0  0
   -7.0740    0.1660    0.0000 H   0  0  0  0  0  0  0  0  0  0  0  0
   -4.7570   -4.4860    0.0000 H   0  0  0  0  0  0  0  0  0  0  0  0
   -2.1820   -3.2940    0.0000 H   0  0  0  0  0  0  0  0  0  0  0  0
   -5.3280    0.6760    0.0000 H   0  0  0  0  0  0  0  0  0  0  0  0
   -2.6650    5.0690    0.0000 H   0  0  0  0  0  0  0  0  0  0  0  0
    1.0070    3.3140    0.0000 H   0  0  0  0  0  0  0  0  0  0  0  0
   -0.6000    4.2240    0.0000 H   0  0  0  0  0  0  0  0  0  0  0  0
   -0.1580    1.2570    0.0000 H   0  0  0  0  0  0  0  0  0  0  0  0
   -1.4650    3.1180    0.0000 H   0  0  0  0  0  0  0  0  0  0  0  0
    0.9830    4.1780    0.0000 H   0  0  0  0  0  0  0  0  0  0  0  0
    3.6680    5.5150    0.0000 H   0  0  0  0  0  0  0  0  0  0  0  0
    5.0730    3.9260    0.0000 H   0  0  0  0  0  0  0  0  0  0  0  0
    2.0790    4.1100    0.0000 H   0  0  0  0  0  0  0  0  0  0  0  0
  1  2  1  0  0  0  0
  2  3  2  0  0  0  0
  2  7  1  0  0  0  0
  3  4  1  0  0  0  0
  3 35  1  0  0  0  0
  4  5  2  0  0  0  0
  4  8  1  0  0  0  0
  5  6  1  0  0  0  0
  5 36  1  0  0  0  0
  6  7  2  0  0  0  0
  6 37  1  0  0  0  0
  7 38  1  0  0  0  0
  8  9  2  0  0  0  0
  8 14  1  0  0  0  0
  9 10  1  0  0  0  0
  9 39  1  0  0  0  0
 10 11  2  0  0  0  0
 10 12  1  0  0  0  0
 12 13  1  0  0  0  0
 12 34  1  0  0  0  0
 13 14  2  0  0  0  0
 13 33  1  0  0  0  0
 14 15  1  0  0  0  0
 15 16  2  0  0  0  0
 15 40  1  0  0  0  0
 16 17  1  0  0  0  0
 16 32  1  0  0  0  0
 17 18  1  6  0  0  0
 17 19  1  0  0  0  0
 17 26  1  0  0  0  0
 18 41  1  0  0  0  0
 18 42  1  0  0  0  0
 19 20  2  0  0  0  0
 19 25  1  0  0  0  0
 20 21  1  0  0  0  0
 20 43  1  0  0  0  0
 21 22  2  0  0  0  0
 21 44  1  0  0  0  0
 22 23  1  0  0  0  0
 22 24  1  0  0  0  0
 24 25  2  0  0  0  0
 24 45  1  0  0  0  0
 25 46  1  0  0  0  0
 26 27  2  0  0  0  0
 26 30  1  0  0  0  0
 27 28  1  0  0  0  0
 27 47  1  0  0  0  0
 28 29  2  0  0  0  0
 29 30  1  0  0  0  0
 29 48  1  0  0  0  0
 30 31  1  0  0  0  0
 31 49  1  0  0  0  0
 31 50  1  0  0  0  0
 31 51  1  0  0  0  0
 32 33  2  0  0  0  0
 32 52  1  0  0  0  0
 33 53  1  0  0  0  0
 34 54  1  0  0  0  0
 34 55  1  0  0  0  0
 34 56  1  0  0  0  0
M  END
$$$$
