2D_structures\o54_MMV1580488_2D.pdb
 OpenBabel02282413353D

 49 51  0  0  0  0  0  0  0  0999 V2000
   -2.0140   -1.9430    0.0000 O   0  0  0  0  0  0  0  0  0  0  0  0
   -1.4520   -0.5520    0.0000 C   0  0  0  0  0  0  0  0  0  0  0  0
   -2.3760    0.6290    0.0000 N   0  0  0  0  0  0  0  0  0  0  0  0
   -3.8620    0.4200    0.0000 C   0  0  0  0  0  0  0  0  0  0  0  0
   -5.3470    0.2110    0.0000 C   0  0  0  0  0  0  0  0  0  0  0  0
   -6.8320    0.0020    0.0000 C   0  0  0  0  0  0  0  0  0  0  0  0
   -8.3180   -0.2070    0.0000 N   0  0  0  0  0  0  0  0  0  0  0  0
   -8.8790   -1.5980    0.0000 C   0  0  0  0  0  0  0  0  0  0  0  0
   -9.2410    0.9750    0.0000 C   0  0  0  0  0  0  0  0  0  0  0  0
    0.0330   -0.3430    0.0000 C   0  0  0  0  0  0  0  0  0  0  0  0
    0.5950    1.0470    0.0000 C   0  0  0  0  0  0  0  0  0  0  0  0
    2.0800    1.2560    0.0000 C   0  0  0  0  0  0  0  0  0  0  0  0
    3.0040    0.0750    0.0000 C   0  0  0  0  0  0  0  0  0  0  0  0
    4.4890    0.2840    0.0000 C   0  0  0  0  0  0  0  0  0  0  0  0
    5.4130   -0.8980    0.0000 C   0  0  0  0  0  0  0  0  0  0  0  0
    6.8980   -0.6890    0.0000 C   0  0  0  0  0  0  0  0  0  0  0  0
    7.8220   -1.8710    0.0000 C   0  0  0  0  0  0  0  0  0  0  0  0
    9.3070   -1.6620    0.0000 C   0  0  0  0  0  0  0  0  0  0  0  0
    9.8690   -0.2710    0.0000 C   0  0  0  0  0  0  0  0  0  0  0  0
    8.9450    0.9110    0.0000 N   0  0  0  0  0  0  0  0  0  0  0  0
    7.4600    0.7020    0.0000 C   0  0  0  0  0  0  0  0  0  0  0  0
    6.5360    1.8840    0.0000 C   0  0  0  0  0  0  0  0  0  0  0  0
    5.0510    1.6750    0.0000 C   0  0  0  0  0  0  0  0  0  0  0  0
    7.0980    3.2740    0.0000 O   0  0  0  0  0  0  0  0  0  0  0  0
    2.4420   -1.3160    0.0000 C   0  0  0  0  0  0  0  0  0  0  0  0
    0.9570   -1.5250    0.0000 C   0  0  0  0  0  0  0  0  0  0  0  0
   -1.8150    2.0200    0.0000 H   0  0  0  0  0  0  0  0  0  0  0  0
   -3.6530   -1.0650    0.0000 H   0  0  0  0  0  0  0  0  0  0  0  0
   -4.0710    1.9060    0.0000 H   0  0  0  0  0  0  0  0  0  0  0  0
   -5.1380   -1.2740    0.0000 H   0  0  0  0  0  0  0  0  0  0  0  0
   -5.5560    1.6970    0.0000 H   0  0  0  0  0  0  0  0  0  0  0  0
   -7.0410    1.4880    0.0000 H   0  0  0  0  0  0  0  0  0  0  0  0
   -6.6230   -1.4830    0.0000 H   0  0  0  0  0  0  0  0  0  0  0  0
   -9.4410   -2.9880    0.0000 H   0  0  0  0  0  0  0  0  0  0  0  0
  -10.2700   -1.0360    0.0000 H   0  0  0  0  0  0  0  0  0  0  0  0
   -7.4880   -2.1590    0.0000 H   0  0  0  0  0  0  0  0  0  0  0  0
  -10.1650    2.1570    0.0000 H   0  0  0  0  0  0  0  0  0  0  0  0
  -10.4230    0.0510    0.0000 H   0  0  0  0  0  0  0  0  0  0  0  0
   -8.0600    1.8990    0.0000 H   0  0  0  0  0  0  0  0  0  0  0  0
   -0.3290    2.2290    0.0000 H   0  0  0  0  0  0  0  0  0  0  0  0
    2.6420    2.6470    0.0000 H   0  0  0  0  0  0  0  0  0  0  0  0
    4.8510   -2.2890    0.0000 H   0  0  0  0  0  0  0  0  0  0  0  0
    7.2600   -3.2620    0.0000 H   0  0  0  0  0  0  0  0  0  0  0  0
   10.2310   -2.8440    0.0000 H   0  0  0  0  0  0  0  0  0  0  0  0
   11.3540   -0.0620    0.0000 H   0  0  0  0  0  0  0  0  0  0  0  0
    4.1270    2.8560    0.0000 H   0  0  0  0  0  0  0  0  0  0  0  0
    6.1740    4.4560    0.0000 H   0  0  0  0  0  0  0  0  0  0  0  0
    3.3660   -2.4980    0.0000 H   0  0  0  0  0  0  0  0  0  0  0  0
    0.3950   -2.9160    0.0000 H   0  0  0  0  0  0  0  0  0  0  0  0
  1  2  2  0  0  0  0
  2  3  1  0  0  0  0
  2 10  1  0  0  0  0
  3  4  1  0  0  0  0
  3 27  1  0  0  0  0
  4  5  1  0  0  0  0
  4 28  1  0  0  0  0
  4 29  1  0  0  0  0
  5  6  1  0  0  0  0
  5 30  1  0  0  0  0
  5 31  1  0  0  0  0
  6  7  1  0  0  0  0
  6 32  1  0  0  0  0
  6 33  1  0  0  0  0
  7  8  1  0  0  0  0
  7  9  1  0  0  0  0
  8 34  1  0  0  0  0
  8 35  1  0  0  0  0
  8 36  1  0  0  0  0
  9 37  1  0  0  0  0
  9 38  1  0  0  0  0
  9 39  1  0  0  0  0
 10 11  2  0  0  0  0
 10 26  1  0  0  0  0
 11 12  1  0  0  0  0
 11 40  1  0  0  0  0
 12 13  2  0  0  0  0
 12 41  1  0  0  0  0
 13 14  1  0  0  0  0
 13 25  1  0  0  0  0
 14 15  2  0  0  0  0
 14 23  1  0  0  0  0
 15 16  1  0  0  0  0
 15 42  1  0  0  0  0
 16 17  2  0  0  0  0
 16 21  1  0  0  0  0
 17 18  1  0  0  0  0
 17 43  1  0  0  0  0
 18 19  2  0  0  0  0
 18 44  1  0  0  0  0
 19 20  1  0  0  0  0
 19 45  1  0  0  0  0
 20 21  2  0  0  0  0
 21 22  1  0  0  0  0
 22 23  2  0  0  0  0
 22 24  1  0  0  0  0
 23 46  1  0  0  0  0
 24 47  1  0  0  0  0
 25 26  2  0  0  0  0
 25 48  1  0  0  0  0
 26 49  1  0  0  0  0
M  END
$$$$
