2D_structures\o55_MMV1580486_2D.pdb
 OpenBabel02282413353D

 45 47  0  0  0  0  0  0  0  0999 V2000
   -1.5500   -2.6600    0.0000 S   0  0  0  0  0  0  0  0  0  0  0  0
   -2.5070   -3.8150    0.0000 O   0  0  0  0  0  0  0  0  0  0  0  0
   -0.4590   -1.6300    0.0000 O   0  0  0  0  0  0  0  0  0  0  0  0
   -0.5200   -3.7500    0.0000 N   0  0  0  0  0  0  0  0  0  0  0  0
   -2.5790   -1.5690    0.0000 C   0  0  0  0  0  0  0  0  0  0  0  0
   -4.0670   -1.7610    0.0000 C   0  0  0  0  0  0  0  0  0  0  0  0
   -4.7090   -0.4050    0.0000 N   0  0  0  0  0  0  0  0  0  0  0  0
   -3.6180    0.6240    0.0000 C   0  0  0  0  0  0  0  0  0  0  0  0
   -2.3020   -0.0950    0.0000 S   0  0  0  0  0  0  0  0  0  0  0  0
   -3.8100    2.1120    0.0000 N   0  0  0  0  0  0  0  0  0  0  0  0
   -2.6180    3.0220    0.0000 C   0  0  0  0  0  0  0  0  0  0  0  0
   -2.8100    4.5100    0.0000 O   0  0  0  0  0  0  0  0  0  0  0  0
   -1.2340    2.4440    0.0000 C   0  0  0  0  0  0  0  0  0  0  0  0
    0.1510    1.8670    0.0000 C   0  0  0  0  0  0  0  0  0  0  0  0
    0.3430    0.3790    0.0000 C   0  0  0  0  0  0  0  0  0  0  0  0
    1.7270   -0.1980    0.0000 C   0  0  0  0  0  0  0  0  0  0  0  0
    2.9190    0.7120    0.0000 C   0  0  0  0  0  0  0  0  0  0  0  0
    4.3040    0.1340    0.0000 C   0  0  0  0  0  0  0  0  0  0  0  0
    4.4960   -1.3540    0.0000 N   0  0  0  0  0  0  0  0  0  0  0  0
    5.8800   -1.9310    0.0000 C   0  0  0  0  0  0  0  0  0  0  0  0
    7.0720   -1.0210    0.0000 C   0  0  0  0  0  0  0  0  0  0  0  0
    6.8800    0.4660    0.0000 C   0  0  0  0  0  0  0  0  0  0  0  0
    5.4960    1.0440    0.0000 C   0  0  0  0  0  0  0  0  0  0  0  0
    2.7270    2.1990    0.0000 C   0  0  0  0  0  0  0  0  0  0  0  0
    1.3430    2.7770    0.0000 C   0  0  0  0  0  0  0  0  0  0  0  0
   -5.1950    2.6900    0.0000 C   0  0  0  0  0  0  0  0  0  0  0  0
   -4.7860   -3.0770    0.0000 C   0  0  0  0  0  0  0  0  0  0  0  0
    0.9400   -3.4040    0.0000 H   0  0  0  0  0  0  0  0  0  0  0  0
   -0.9500   -5.1880    0.0000 H   0  0  0  0  0  0  0  0  0  0  0  0
   -1.8110    1.0600    0.0000 H   0  0  0  0  0  0  0  0  0  0  0  0
   -0.6560    3.8290    0.0000 H   0  0  0  0  0  0  0  0  0  0  0  0
   -0.8500   -0.5310    0.0000 H   0  0  0  0  0  0  0  0  0  0  0  0
    1.9190   -1.6860    0.0000 H   0  0  0  0  0  0  0  0  0  0  0  0
    6.0720   -3.4190    0.0000 H   0  0  0  0  0  0  0  0  0  0  0  0
    8.4570   -1.5990    0.0000 H   0  0  0  0  0  0  0  0  0  0  0  0
    8.0730    1.3760    0.0000 H   0  0  0  0  0  0  0  0  0  0  0  0
    5.3040    2.5320    0.0000 H   0  0  0  0  0  0  0  0  0  0  0  0
    3.9200    3.1090    0.0000 H   0  0  0  0  0  0  0  0  0  0  0  0
    1.1510    4.2650    0.0000 H   0  0  0  0  0  0  0  0  0  0  0  0
   -6.5790    3.2670    0.0000 H   0  0  0  0  0  0  0  0  0  0  0  0
   -5.7720    1.3050    0.0000 H   0  0  0  0  0  0  0  0  0  0  0  0
   -4.6170    4.0740    0.0000 H   0  0  0  0  0  0  0  0  0  0  0  0
   -5.5050   -4.3940    0.0000 H   0  0  0  0  0  0  0  0  0  0  0  0
   -6.1020   -2.3580    0.0000 H   0  0  0  0  0  0  0  0  0  0  0  0
   -3.5670   -3.9520    0.0000 H   0  0  0  0  0  0  0  0  0  0  0  0
  1  2  2  0  0  0  0
  1  3  2  0  0  0  0
  1  4  1  0  0  0  0
  1  5  1  0  0  0  0
  4 28  1  0  0  0  0
  4 29  1  0  0  0  0
  5  6  2  0  0  0  0
  5  9  1  0  0  0  0
  6  7  1  0  0  0  0
  6 27  1  0  0  0  0
  7  8  2  0  0  0  0
  8  9  1  0  0  0  0
  8 10  1  0  0  0  0
 10 11  1  0  0  0  0
 10 26  1  0  0  0  0
 11 12  2  0  0  0  0
 11 13  1  0  0  0  0
 13 14  1  0  0  0  0
 13 30  1  0  0  0  0
 13 31  1  0  0  0  0
 14 15  2  0  0  0  0
 14 25  1  0  0  0  0
 15 16  1  0  0  0  0
 15 32  1  0  0  0  0
 16 17  2  0  0  0  0
 16 33  1  0  0  0  0
 17 18  1  0  0  0  0
 17 24  1  0  0  0  0
 18 19  2  0  0  0  0
 18 23  1  0  0  0  0
 19 20  1  0  0  0  0
 20 21  2  0  0  0  0
 20 34  1  0  0  0  0
 21 22  1  0  0  0  0
 21 35  1  0  0  0  0
 22 23  2  0  0  0  0
 22 36  1  0  0  0  0
 23 37  1  0  0  0  0
 24 25  2  0  0  0  0
 24 38  1  0  0  0  0
 25 39  1  0  0  0  0
 26 40  1  0  0  0  0
 26 41  1  0  0  0  0
 26 42  1  0  0  0  0
 27 43  1  0  0  0  0
 27 44  1  0  0  0  0
 27 45  1  0  0  0  0
M  END
$$$$
