2D_structures\o56_MMV1782222_2D.pdb
 OpenBabel02282413353D

 65 70  0  0  0  0  0  0  0  0999 V2000
    3.5030    3.7250    0.0000 C   0  0  0  0  0  0  0  0  0  0  0  0
    3.9360    2.2890    0.0000 N   0  0  0  0  0  0  0  0  0  0  0  0
    5.4180    2.0560    0.0000 C   0  0  0  0  0  0  0  0  0  0  0  0
    6.1760    3.3500    0.0000 C   0  0  0  0  0  0  0  0  0  0  0  0
    7.6760    3.3400    0.0000 C   0  0  0  0  0  0  0  0  0  0  0  0
    8.4180    2.0360    0.0000 C   0  0  0  0  0  0  0  0  0  0  0  0
    9.9180    2.0270    0.0000 Cl  0  0  0  0  0  0  0  0  0  0  0  0
    7.6590    0.7420    0.0000 C   0  0  0  0  0  0  0  0  0  0  0  0
    6.1590    0.7520    0.0000 C   0  0  0  0  0  0  0  0  0  0  0  0
    5.6020   -0.6410    0.0000 N   0  0  0  0  0  0  0  0  0  0  0  0
    4.1660   -1.0740    0.0000 C   0  0  0  0  0  0  0  0  0  0  0  0
    3.9330   -2.5560    0.0000 O   0  0  0  0  0  0  0  0  0  0  0  0
    2.9320   -0.2210    0.0000 C   0  0  0  0  0  0  0  0  0  0  0  0
    1.5410   -0.7810    0.0000 C   0  0  0  0  0  0  0  0  0  0  0  0
    0.5780    0.3700    0.0000 N   0  0  0  0  0  0  0  0  0  0  0  0
   -0.9180    0.2670    0.0000 C   0  0  0  0  0  0  0  0  0  0  0  0
   -2.4150    0.1650    0.0000 C   0  0  0  0  0  0  0  0  0  0  0  0
   -3.2520    1.4100    0.0000 C   0  0  0  0  0  0  0  0  0  0  0  0
   -4.7480    1.3070    0.0000 C   0  0  0  0  0  0  0  0  0  0  0  0
   -5.4080   -0.0400    0.0000 C   0  0  0  0  0  0  0  0  0  0  0  0
   -6.9040   -0.1420    0.0000 C   0  0  0  0  0  0  0  0  0  0  0  0
   -8.4010   -0.2450    0.0000 N   0  0  0  0  0  0  0  0  0  0  0  0
   -9.2380    1.0000    0.0000 C   0  0  0  0  0  0  0  0  0  0  0  0
  -10.7340    0.8980    0.0000 C   0  0  0  0  0  0  0  0  0  0  0  0
  -11.3940   -0.4500    0.0000 O   0  0  0  0  0  0  0  0  0  0  0  0
  -10.5570   -1.6940    0.0000 C   0  0  0  0  0  0  0  0  0  0  0  0
   -9.0600   -1.5920    0.0000 C   0  0  0  0  0  0  0  0  0  0  0  0
   -4.5710   -1.2850    0.0000 C   0  0  0  0  0  0  0  0  0  0  0  0
   -3.0740   -1.1820    0.0000 C   0  0  0  0  0  0  0  0  0  0  0  0
    1.3750    1.6410    0.0000 N   0  0  0  0  0  0  0  0  0  0  0  0
    2.8300    1.2760    0.0000 C   0  0  0  0  0  0  0  0  0  0  0  0
    6.6160   -1.7470    0.0000 C   0  0  0  0  0  0  0  0  0  0  0  0
    6.1640   -3.1780    0.0000 C   0  0  0  0  0  0  0  0  0  0  0  0
    7.1770   -4.2840    0.0000 C   0  0  0  0  0  0  0  0  0  0  0  0
    8.6420   -3.9590    0.0000 C   0  0  0  0  0  0  0  0  0  0  0  0
    9.0930   -2.5290    0.0000 C   0  0  0  0  0  0  0  0  0  0  0  0
    8.0800   -1.4230    0.0000 C   0  0  0  0  0  0  0  0  0  0  0  0
    3.0700    5.1610    0.0000 H   0  0  0  0  0  0  0  0  0  0  0  0
    2.0670    3.2920    0.0000 H   0  0  0  0  0  0  0  0  0  0  0  0
    4.7390    4.2690    0.0000 H   0  0  0  0  0  0  0  0  0  0  0  0
    5.6570    4.5960    0.0000 H   0  0  0  0  0  0  0  0  0  0  0  0
    8.4350    4.6340    0.0000 H   0  0  0  0  0  0  0  0  0  0  0  0
    8.1350    0.1020    0.0000 H   0  0  0  0  0  0  0  0  0  0  0  0
    1.1760   -2.2360    0.0000 H   0  0  0  0  0  0  0  0  0  0  0  0
   -0.8160   -1.2290    0.0000 H   0  0  0  0  0  0  0  0  0  0  0  0
   -1.0210    1.7640    0.0000 H   0  0  0  0  0  0  0  0  0  0  0  0
   -2.5920    2.7570    0.0000 H   0  0  0  0  0  0  0  0  0  0  0  0
   -5.5850    2.5520    0.0000 H   0  0  0  0  0  0  0  0  0  0  0  0
   -6.6200   -1.6150    0.0000 H   0  0  0  0  0  0  0  0  0  0  0  0
   -6.8230    1.3550    0.0000 H   0  0  0  0  0  0  0  0  0  0  0  0
   -9.5980    2.4560    0.0000 H   0  0  0  0  0  0  0  0  0  0  0  0
   -7.9510    1.7710    0.0000 H   0  0  0  0  0  0  0  0  0  0  0  0
  -12.1750    1.3130    0.0000 H   0  0  0  0  0  0  0  0  0  0  0  0
  -10.5750    2.3890    0.0000 H   0  0  0  0  0  0  0  0  0  0  0  0
  -10.1960   -3.1500    0.0000 H   0  0  0  0  0  0  0  0  0  0  0  0
  -11.9280   -2.3020    0.0000 H   0  0  0  0  0  0  0  0  0  0  0  0
   -7.6800   -2.1800    0.0000 H   0  0  0  0  0  0  0  0  0  0  0  0
   -9.2190   -3.0840    0.0000 H   0  0  0  0  0  0  0  0  0  0  0  0
   -5.2300   -2.6320    0.0000 H   0  0  0  0  0  0  0  0  0  0  0  0
   -2.2370   -2.4270    0.0000 H   0  0  0  0  0  0  0  0  0  0  0  0
    4.7000   -3.5020    0.0000 H   0  0  0  0  0  0  0  0  0  0  0  0
    6.7260   -5.7140    0.0000 H   0  0  0  0  0  0  0  0  0  0  0  0
    9.6550   -5.0660    0.0000 H   0  0  0  0  0  0  0  0  0  0  0  0
   10.5580   -2.2050    0.0000 H   0  0  0  0  0  0  0  0  0  0  0  0
    8.4110   -0.6980    0.0000 H   0  0  0  0  0  0  0  0  0  0  0  0
  1  2  1  0  0  0  0
  1 38  1  0  0  0  0
  1 39  1  0  0  0  0
  1 40  1  0  0  0  0
  2  3  1  0  0  0  0
  2 31  1  0  0  0  0
  3  4  2  0  0  0  0
  3  9  1  0  0  0  0
  4  5  1  0  0  0  0
  4 41  1  0  0  0  0
  5  6  2  0  0  0  0
  5 42  1  0  0  0  0
  6  7  1  0  0  0  0
  6  8  1  0  0  0  0
  8  9  2  0  0  0  0
  8 43  1  0  0  0  0
  9 10  1  0  0  0  0
 10 11  1  0  0  0  0
 10 32  1  0  0  0  0
 11 12  2  0  0  0  0
 11 13  1  0  0  0  0
 13 14  2  0  0  0  0
 13 31  1  0  0  0  0
 14 15  1  0  0  0  0
 14 44  1  0  0  0  0
 15 16  1  0  0  0  0
 15 30  1  0  0  0  0
 16 17  1  0  0  0  0
 16 45  1  0  0  0  0
 16 46  1  0  0  0  0
 17 18  2  0  0  0  0
 17 29  1  0  0  0  0
 18 19  1  0  0  0  0
 18 47  1  0  0  0  0
 19 20  2  0  0  0  0
 19 48  1  0  0  0  0
 20 21  1  0  0  0  0
 20 28  1  0  0  0  0
 21 22  1  0  0  0  0
 21 49  1  0  0  0  0
 21 50  1  0  0  0  0
 22 23  1  0  0  0  0
 22 27  1  0  0  0  0
 23 24  1  0  0  0  0
 23 51  1  0  0  0  0
 23 52  1  0  0  0  0
 24 25  1  0  0  0  0
 24 53  1  0  0  0  0
 24 54  1  0  0  0  0
 25 26  1  0  0  0  0
 26 27  1  0  0  0  0
 26 55  1  0  0  0  0
 26 56  1  0  0  0  0
 27 57  1  0  0  0  0
 27 58  1  0  0  0  0
 28 29  2  0  0  0  0
 28 59  1  0  0  0  0
 29 60  1  0  0  0  0
 30 31  2  0  0  0  0
 32 33  2  0  0  0  0
 32 37  1  0  0  0  0
 33 34  1  0  0  0  0
 33 61  1  0  0  0  0
 34 35  2  0  0  0  0
 34 62  1  0  0  0  0
 35 36  1  0  0  0  0
 35 63  1  0  0  0  0
 36 37  2  0  0  0  0
 36 64  1  0  0  0  0
 37 65  1  0  0  0  0
M  END
$$$$
