2D_structures\o5_MMV1782103_2D.pdb
 OpenBabel02282413353D

 36 38  0  0  0  0  0  0  0  0999 V2000
   -0.7000   -5.8410    0.0000 O   0  0  0  0  0  0  0  0  0  0  0  0
   -0.4330   -4.3650    0.0000 C   0  0  0  0  0  0  0  0  0  0  0  0
    0.9790   -3.8580    0.0000 N   0  0  0  0  0  0  0  0  0  0  0  0
    1.2450   -2.3820    0.0000 C   0  0  0  0  0  0  0  0  0  0  0  0
    0.1000   -1.4130    0.0000 N   0  0  0  0  0  0  0  0  0  0  0  0
   -1.3120   -1.9200    0.0000 C   0  0  0  0  0  0  0  0  0  0  0  0
   -1.5780   -3.3960    0.0000 C   0  0  0  0  0  0  0  0  0  0  0  0
   -3.0640   -3.5990    0.0000 N   0  0  0  0  0  0  0  0  0  0  0  0
   -3.7160   -2.2480    0.0000 C   0  0  0  0  0  0  0  0  0  0  0  0
   -2.6330   -1.2100    0.0000 N   0  0  0  0  0  0  0  0  0  0  0  0
   -2.8360    0.2760    0.0000 C   0  0  0  0  0  0  0  0  0  0  0  0
   -3.0380    1.7620    0.0000 C   0  0  0  0  0  0  0  0  0  0  0  0
   -3.2410    3.2480    0.0000 O   0  0  0  0  0  0  0  0  0  0  0  0
   -2.0550    4.1670    0.0000 C   0  0  0  0  0  0  0  0  0  0  0  0
    2.6570   -1.8740    0.0000 N   0  0  0  0  0  0  0  0  0  0  0  0
    2.9230   -0.3980    0.0000 C   0  0  0  0  0  0  0  0  0  0  0  0
    1.7780    0.5710    0.0000 C   0  0  0  0  0  0  0  0  0  0  0  0
    2.0450    2.0470    0.0000 C   0  0  0  0  0  0  0  0  0  0  0  0
    3.4560    2.5540    0.0000 C   0  0  0  0  0  0  0  0  0  0  0  0
    4.6020    1.5850    0.0000 C   0  0  0  0  0  0  0  0  0  0  0  0
    4.3350    0.1090    0.0000 C   0  0  0  0  0  0  0  0  0  0  0  0
    2.1240   -4.8270    0.0000 H   0  0  0  0  0  0  0  0  0  0  0  0
   -5.1930   -1.9810    0.0000 H   0  0  0  0  0  0  0  0  0  0  0  0
   -4.3220    0.0730    0.0000 H   0  0  0  0  0  0  0  0  0  0  0  0
   -1.3500    0.4790    0.0000 H   0  0  0  0  0  0  0  0  0  0  0  0
   -4.5250    1.5600    0.0000 H   0  0  0  0  0  0  0  0  0  0  0  0
   -1.5520    1.9650    0.0000 H   0  0  0  0  0  0  0  0  0  0  0  0
   -0.8690    5.0860    0.0000 H   0  0  0  0  0  0  0  0  0  0  0  0
   -2.9740    5.3530    0.0000 H   0  0  0  0  0  0  0  0  0  0  0  0
   -1.1370    2.9810    0.0000 H   0  0  0  0  0  0  0  0  0  0  0  0
    3.8020   -2.8430    0.0000 H   0  0  0  0  0  0  0  0  0  0  0  0
    0.3670    0.0630    0.0000 H   0  0  0  0  0  0  0  0  0  0  0  0
    0.9000    3.0160    0.0000 H   0  0  0  0  0  0  0  0  0  0  0  0
    3.7230    4.0300    0.0000 H   0  0  0  0  0  0  0  0  0  0  0  0
    6.0130    2.0920    0.0000 H   0  0  0  0  0  0  0  0  0  0  0  0
    5.4800   -0.8600    0.0000 H   0  0  0  0  0  0  0  0  0  0  0  0
  1  2  2  0  0  0  0
  2  3  1  0  0  0  0
  2  7  1  0  0  0  0
  3  4  1  0  0  0  0
  3 22  1  0  0  0  0
  4  5  2  0  0  0  0
  4 15  1  0  0  0  0
  5  6  1  0  0  0  0
  6  7  2  0  0  0  0
  6 10  1  0  0  0  0
  7  8  1  0  0  0  0
  8  9  2  0  0  0  0
  9 10  1  0  0  0  0
  9 23  1  0  0  0  0
 10 11  1  0  0  0  0
 11 12  1  0  0  0  0
 11 24  1  0  0  0  0
 11 25  1  0  0  0  0
 12 13  1  0  0  0  0
 12 26  1  0  0  0  0
 12 27  1  0  0  0  0
 13 14  1  0  0  0  0
 14 28  1  0  0  0  0
 14 29  1  0  0  0  0
 14 30  1  0  0  0  0
 15 16  1  0  0  0  0
 15 31  1  0  0  0  0
 16 17  2  0  0  0  0
 16 21  1  0  0  0  0
 17 18  1  0  0  0  0
 17 32  1  0  0  0  0
 18 19  2  0  0  0  0
 18 33  1  0  0  0  0
 19 20  1  0  0  0  0
 19 34  1  0  0  0  0
 20 21  2  0  0  0  0
 20 35  1  0  0  0  0
 21 36  1  0  0  0  0
M  END
$$$$
