2D_structures\o61_MMV1782211_2D.pdb
 OpenBabel02282413353D

 54 58  0  0  1  0  0  0  0  0999 V2000
   -6.4770   -1.7430    0.0000 C   0  0  0  0  0  0  0  0  0  0  0  0
   -6.1180   -0.2870    0.0000 C   0  0  1  0  0  0  0  0  0  0  0  0
   -4.6620   -0.6450    0.0000 N   0  0  0  0  0  0  0  0  0  0  0  0
   -4.2440   -2.0860    0.0000 C   0  0  0  0  0  0  0  0  0  0  0  0
   -4.8570   -2.7250    0.0000 O   0  0  0  0  0  0  0  0  0  0  0  0
   -2.7880   -2.4440    0.0000 C   0  0  0  0  0  0  0  0  0  0  0  0
   -2.3700   -3.8850    0.0000 C   0  0  0  0  0  0  0  0  0  0  0  0
   -0.9130   -4.2440    0.0000 C   0  0  0  0  0  0  0  0  0  0  0  0
    0.1250   -3.1610    0.0000 C   0  0  0  0  0  0  0  0  0  0  0  0
   -0.2920   -1.7210    0.0000 C   0  0  0  0  0  0  0  0  0  0  0  0
   -1.7490   -1.3620    0.0000 C   0  0  0  0  0  0  0  0  0  0  0  0
    0.7460   -0.6390    0.0000 C   0  0  0  0  0  0  0  0  0  0  0  0
    0.4810    0.8380    0.0000 C   0  0  0  0  0  0  0  0  0  0  0  0
    1.8040    1.5460    0.0000 N   0  0  0  0  0  0  0  0  0  0  0  0
    2.8860    0.5070    0.0000 C   0  0  0  0  0  0  0  0  0  0  0  0
    2.2320   -0.8430    0.0000 N   0  0  0  0  0  0  0  0  0  0  0  0
    4.3620    0.7720    0.0000 C   0  0  0  0  0  0  0  0  0  0  0  0
    5.3300   -0.3740    0.0000 C   0  0  0  0  0  0  0  0  0  0  0  0
    6.8060   -0.1090    0.0000 C   0  0  0  0  0  0  0  0  0  0  0  0
    7.7740   -1.2550    0.0000 C   0  0  0  0  0  0  0  0  0  0  0  0
    9.2500   -0.9900    0.0000 C   0  0  0  0  0  0  0  0  0  0  0  0
    9.7590    0.4210    0.0000 C   0  0  0  0  0  0  0  0  0  0  0  0
    8.7920    1.5670    0.0000 C   0  0  0  0  0  0  0  0  0  0  0  0
    7.3150    1.3020    0.0000 C   0  0  0  0  0  0  0  0  0  0  0  0
    6.3470    2.4480    0.0000 C   0  0  0  0  0  0  0  0  0  0  0  0
    4.8710    2.1830    0.0000 N   0  0  0  0  0  0  0  0  0  0  0  0
   -5.7600    1.1700    0.0000 C   0  0  0  0  0  0  0  0  0  0  0  0
   -4.3190    1.5880    0.0000 C   0  0  0  0  0  0  0  0  0  0  0  0
   -3.9610    3.0440    0.0000 C   0  0  0  0  0  0  0  0  0  0  0  0
   -5.0430    4.0830    0.0000 C   0  0  0  0  0  0  0  0  0  0  0  0
   -4.6850    5.5390    0.0000 F   0  0  0  0  0  0  0  0  0  0  0  0
   -6.4840    3.6650    0.0000 C   0  0  0  0  0  0  0  0  0  0  0  0
   -6.8420    2.2080    0.0000 C   0  0  0  0  0  0  0  0  0  0  0  0
   -6.8350   -3.2000    0.0000 H   0  0  0  0  0  0  0  0  0  0  0  0
   -5.6940   -2.1570    0.0000 H   0  0  0  0  0  0  0  0  0  0  0  0
   -7.9340   -1.3850    0.0000 H   0  0  0  0  0  0  0  0  0  0  0  0
   -7.5750    0.0720    0.0000 H   0  0  0  0  0  0  0  0  0  0  0  0
   -3.8140    0.0450    0.0000 H   0  0  0  0  0  0  0  0  0  0  0  0
   -3.4090   -4.9670    0.0000 H   0  0  0  0  0  0  0  0  0  0  0  0
   -0.4950   -5.6840    0.0000 H   0  0  0  0  0  0  0  0  0  0  0  0
    1.5820   -3.5200    0.0000 H   0  0  0  0  0  0  0  0  0  0  0  0
   -2.1670    0.0780    0.0000 H   0  0  0  0  0  0  0  0  0  0  0  0
   -0.8690    1.4910    0.0000 H   0  0  0  0  0  0  0  0  0  0  0  0
    2.0080    3.0320    0.0000 H   0  0  0  0  0  0  0  0  0  0  0  0
    4.8210   -1.7850    0.0000 H   0  0  0  0  0  0  0  0  0  0  0  0
    7.2650   -2.6660    0.0000 H   0  0  0  0  0  0  0  0  0  0  0  0
   10.2180   -2.1360    0.0000 H   0  0  0  0  0  0  0  0  0  0  0  0
   11.2360    0.6860    0.0000 H   0  0  0  0  0  0  0  0  0  0  0  0
    9.3000    2.9780    0.0000 H   0  0  0  0  0  0  0  0  0  0  0  0
    6.8560    3.8590    0.0000 H   0  0  0  0  0  0  0  0  0  0  0  0
   -3.4440    0.9320    0.0000 H   0  0  0  0  0  0  0  0  0  0  0  0
   -2.5200    3.4620    0.0000 H   0  0  0  0  0  0  0  0  0  0  0  0
   -7.5660    4.7040    0.0000 H   0  0  0  0  0  0  0  0  0  0  0  0
   -8.2830    1.7910    0.0000 H   0  0  0  0  0  0  0  0  0  0  0  0
  1  2  1  0  0  0  0
  1 34  1  0  0  0  0
  1 35  1  0  0  0  0
  1 36  1  0  0  0  0
  2  3  1  0  0  0  0
  2 27  1  0  0  0  0
  2 37  1  1  0  0  0
  3  4  1  0  0  0  0
  3 38  1  0  0  0  0
  4  5  2  0  0  0  0
  4  6  1  0  0  0  0
  6  7  2  0  0  0  0
  6 11  1  0  0  0  0
  7  8  1  0  0  0  0
  7 39  1  0  0  0  0
  8  9  2  0  0  0  0
  8 40  1  0  0  0  0
  9 10  1  0  0  0  0
  9 41  1  0  0  0  0
 10 11  2  0  0  0  0
 10 12  1  0  0  0  0
 11 42  1  0  0  0  0
 12 13  2  0  0  0  0
 12 16  1  0  0  0  0
 13 14  1  0  0  0  0
 13 43  1  0  0  0  0
 14 15  1  0  0  0  0
 14 44  1  0  0  0  0
 15 16  2  0  0  0  0
 15 17  1  0  0  0  0
 17 18  2  0  0  0  0
 17 26  1  0  0  0  0
 18 19  1  0  0  0  0
 18 45  1  0  0  0  0
 19 20  2  0  0  0  0
 19 24  1  0  0  0  0
 20 21  1  0  0  0  0
 20 46  1  0  0  0  0
 21 22  2  0  0  0  0
 21 47  1  0  0  0  0
 22 23  1  0  0  0  0
 22 48  1  0  0  0  0
 23 24  2  0  0  0  0
 23 49  1  0  0  0  0
 24 25  1  0  0  0  0
 25 26  2  0  0  0  0
 25 50  1  0  0  0  0
 27 28  2  0  0  0  0
 27 33  1  0  0  0  0
 28 29  1  0  0  0  0
 28 51  1  0  0  0  0
 29 30  2  0  0  0  0
 29 52  1  0  0  0  0
 30 31  1  0  0  0  0
 30 32  1  0  0  0  0
 32 33  2  0  0  0  0
 32 53  1  0  0  0  0
 33 54  1  0  0  0  0
M  END
$$$$
