2D_structures\o71_MMV1782412_2D.pdb
 OpenBabel02282413353D

 65 69  0  0  1  0  0  0  0  0999 V2000
    1.6540   -2.8820    0.0000 N   0  0  0  0  0  0  0  0  0  0  0  0
    3.0540   -2.3430    0.0000 C   0  0  0  0  0  0  0  0  0  0  0  0
    4.0970   -3.4220    0.0000 O   0  0  0  0  0  0  0  0  0  0  0  0
    3.2880   -0.8620    0.0000 C   0  0  0  0  0  0  0  0  0  0  0  0
    1.8060   -0.6280    0.0000 C   0  0  1  0  0  0  0  0  0  0  0  0
    2.2940    0.7910    0.0000 C   0  0  0  0  0  0  0  0  0  0  0  0
    1.3090    1.9220    0.0000 C   0  0  0  0  0  0  0  0  0  0  0  0
   -0.1640    1.6350    0.0000 C   0  0  0  0  0  0  0  0  0  0  0  0
   -0.6510    0.2160    0.0000 N   0  0  0  0  0  0  0  0  0  0  0  0
   -2.1230   -0.0710    0.0000 C   0  0  0  0  0  0  0  0  0  0  0  0
   -3.5960   -0.3580    0.0000 C   0  0  0  0  0  0  0  0  0  0  0  0
   -5.0680   -0.6450    0.0000 C   0  0  0  0  0  0  0  0  0  0  0  0
   -5.5550   -2.0630    0.0000 C   0  0  0  0  0  0  0  0  0  0  0  0
   -7.0280   -2.3510    0.0000 C   0  0  0  0  0  0  0  0  0  0  0  0
   -8.0120   -1.2190    0.0000 C   0  0  0  0  0  0  0  0  0  0  0  0
   -9.5120   -1.1940    0.0000 O   0  0  0  0  0  0  0  0  0  0  0  0
   -9.9520    0.2400    0.0000 C   0  0  0  0  0  0  0  0  0  0  0  0
   -8.7230    1.1020    0.0000 C   0  0  0  0  0  0  0  0  0  0  0  0
   -7.5250    0.2000    0.0000 C   0  0  0  0  0  0  0  0  0  0  0  0
   -6.0530    0.4870    0.0000 C   0  0  0  0  0  0  0  0  0  0  0  0
    0.3340   -0.9150    0.0000 C   0  0  0  0  0  0  0  0  0  0  0  0
    3.5210    0.6200    0.0000 C   0  0  0  0  0  0  0  0  0  0  0  0
    4.9220    1.1580    0.0000 C   0  0  0  0  0  0  0  0  0  0  0  0
    5.1550    2.6400    0.0000 C   0  0  0  0  0  0  0  0  0  0  0  0
    3.9890    3.5830    0.0000 C   0  0  0  0  0  0  0  0  0  0  0  0
    2.5890    3.0450    0.0000 C   0  0  0  0  0  0  0  0  0  0  0  0
    2.3550    1.5630    0.0000 C   0  0  0  0  0  0  0  0  0  0  0  0
    4.7690   -1.0960    0.0000 C   0  0  0  0  0  0  0  0  0  0  0  0
    5.3080   -2.4960    0.0000 C   0  0  0  0  0  0  0  0  0  0  0  0
    6.7890   -2.7290    0.0000 C   0  0  0  0  0  0  0  0  0  0  0  0
    7.7330   -1.5630    0.0000 C   0  0  0  0  0  0  0  0  0  0  0  0
    7.1940   -0.1630    0.0000 C   0  0  0  0  0  0  0  0  0  0  0  0
    5.7130    0.0710    0.0000 C   0  0  0  0  0  0  0  0  0  0  0  0
    1.4200   -4.3630    0.0000 H   0  0  0  0  0  0  0  0  0  0  0  0
    0.3810   -2.0880    0.0000 H   0  0  0  0  0  0  0  0  0  0  0  0
    1.5030   -1.9440    0.0000 H   0  0  0  0  0  0  0  0  0  0  0  0
    3.2370    1.9570    0.0000 H   0  0  0  0  0  0  0  0  0  0  0  0
    3.0640    0.5850    0.0000 H   0  0  0  0  0  0  0  0  0  0  0  0
    0.7700    3.3220    0.0000 H   0  0  0  0  0  0  0  0  0  0  0  0
    2.3690    2.9830    0.0000 H   0  0  0  0  0  0  0  0  0  0  0  0
   -1.6060    2.0480    0.0000 H   0  0  0  0  0  0  0  0  0  0  0  0
   -0.1910    3.1350    0.0000 H   0  0  0  0  0  0  0  0  0  0  0  0
   -2.5880    1.3560    0.0000 H   0  0  0  0  0  0  0  0  0  0  0  0
   -2.0180   -1.5670    0.0000 H   0  0  0  0  0  0  0  0  0  0  0  0
   -3.3080   -1.8300    0.0000 H   0  0  0  0  0  0  0  0  0  0  0  0
   -3.8830    1.1140    0.0000 H   0  0  0  0  0  0  0  0  0  0  0  0
   -4.5710   -3.1950    0.0000 H   0  0  0  0  0  0  0  0  0  0  0  0
   -7.5150   -3.7690    0.0000 H   0  0  0  0  0  0  0  0  0  0  0  0
  -11.3320   -0.3460    0.0000 H   0  0  0  0  0  0  0  0  0  0  0  0
  -10.6800    1.5520    0.0000 H   0  0  0  0  0  0  0  0  0  0  0  0
   -9.7080    2.2330    0.0000 H   0  0  0  0  0  0  0  0  0  0  0  0
   -7.7010    2.1990    0.0000 H   0  0  0  0  0  0  0  0  0  0  0  0
   -5.5650    1.9050    0.0000 H   0  0  0  0  0  0  0  0  0  0  0  0
    0.6970   -2.3700    0.0000 H   0  0  0  0  0  0  0  0  0  0  0  0
   -0.8480   -1.8390    0.0000 H   0  0  0  0  0  0  0  0  0  0  0  0
    6.2810    0.5250    0.0000 H   0  0  0  0  0  0  0  0  0  0  0  0
    6.5550    3.1780    0.0000 H   0  0  0  0  0  0  0  0  0  0  0  0
    4.2230    5.0650    0.0000 H   0  0  0  0  0  0  0  0  0  0  0  0
    1.4230    3.9880    0.0000 H   0  0  0  0  0  0  0  0  0  0  0  0
    0.9550    1.0250    0.0000 H   0  0  0  0  0  0  0  0  0  0  0  0
    4.5140   -3.7680    0.0000 H   0  0  0  0  0  0  0  0  0  0  0  0
    7.3280   -4.1290    0.0000 H   0  0  0  0  0  0  0  0  0  0  0  0
    9.2140   -1.7970    0.0000 H   0  0  0  0  0  0  0  0  0  0  0  0
    8.1380    1.0030    0.0000 H   0  0  0  0  0  0  0  0  0  0  0  0
    5.5290    1.5590    0.0000 H   0  0  0  0  0  0  0  0  0  0  0  0
  1  2  1  0  0  0  0
  1 34  1  0  0  0  0
  1 35  1  0  0  0  0
  2  3  2  0  0  0  0
  2  4  1  0  0  0  0
  4  5  1  0  0  0  0
  4 22  1  0  0  0  0
  4 28  1  0  0  0  0
  5  6  1  0  0  0  0
  5 21  1  0  0  0  0
  5 36  1  1  0  0  0
  6  7  1  0  0  0  0
  6 37  1  0  0  0  0
  6 38  1  0  0  0  0
  7  8  1  0  0  0  0
  7 39  1  0  0  0  0
  7 40  1  0  0  0  0
  8  9  1  0  0  0  0
  8 41  1  0  0  0  0
  8 42  1  0  0  0  0
  9 10  1  0  0  0  0
  9 21  1  0  0  0  0
 10 11  1  0  0  0  0
 10 43  1  0  0  0  0
 10 44  1  0  0  0  0
 11 12  1  0  0  0  0
 11 45  1  0  0  0  0
 11 46  1  0  0  0  0
 12 13  2  0  0  0  0
 12 20  1  0  0  0  0
 13 14  1  0  0  0  0
 13 47  1  0  0  0  0
 14 15  2  0  0  0  0
 14 48  1  0  0  0  0
 15 16  1  0  0  0  0
 15 19  1  0  0  0  0
 16 17  1  0  0  0  0
 17 18  1  0  0  0  0
 17 49  1  0  0  0  0
 17 50  1  0  0  0  0
 18 19  1  0  0  0  0
 18 51  1  0  0  0  0
 18 52  1  0  0  0  0
 19 20  2  0  0  0  0
 20 53  1  0  0  0  0
 21 54  1  0  0  0  0
 21 55  1  0  0  0  0
 22 23  2  0  0  0  0
 22 27  1  0  0  0  0
 23 24  1  0  0  0  0
 23 56  1  0  0  0  0
 24 25  2  0  0  0  0
 24 57  1  0  0  0  0
 25 26  1  0  0  0  0
 25 58  1  0  0  0  0
 26 27  2  0  0  0  0
 26 59  1  0  0  0  0
 27 60  1  0  0  0  0
 28 29  2  0  0  0  0
 28 33  1  0  0  0  0
 29 30  1  0  0  0  0
 29 61  1  0  0  0  0
 30 31  2  0  0  0  0
 30 62  1  0  0  0  0
 31 32  1  0  0  0  0
 31 63  1  0  0  0  0
 32 33  2  0  0  0  0
 32 64  1  0  0  0  0
 33 65  1  0  0  0  0
M  END
$$$$
