2D_structures\o74_MMV690555_2D.pdb
 OpenBabel02282413353D

 31 34  0  0  0  0  0  0  0  0999 V2000
    3.0650    4.9070    0.0000 F   0  0  0  0  0  0  0  0  0  0  0  0
    2.7240    3.4470    0.0000 C   0  0  0  0  0  0  0  0  0  0  0  0
    4.1850    3.1060    0.0000 F   0  0  0  0  0  0  0  0  0  0  0  0
    1.2640    3.7870    0.0000 F   0  0  0  0  0  0  0  0  0  0  0  0
    2.3840    1.9860    0.0000 C   0  0  0  0  0  0  0  0  0  0  0  0
    0.9480    1.5500    0.0000 N   0  0  0  0  0  0  0  0  0  0  0  0
    0.6080    0.0890    0.0000 C   0  0  0  0  0  0  0  0  0  0  0  0
    1.7030   -0.9360    0.0000 C   0  0  0  0  0  0  0  0  0  0  0  0
    1.3620   -2.3970    0.0000 C   0  0  0  0  0  0  0  0  0  0  0  0
   -0.0730   -2.8320    0.0000 C   0  0  0  0  0  0  0  0  0  0  0  0
   -1.1680   -1.8070    0.0000 C   0  0  0  0  0  0  0  0  0  0  0  0
   -2.6630   -1.9340    0.0000 N   0  0  0  0  0  0  0  0  0  0  0  0
   -3.2460   -0.5520    0.0000 C   0  0  0  0  0  0  0  0  0  0  0  0
   -2.1120    0.4290    0.0000 C   0  0  0  0  0  0  0  0  0  0  0  0
   -0.8280   -0.3460    0.0000 N   0  0  0  0  0  0  0  0  0  0  0  0
   -4.7070   -0.2120    0.0000 C   0  0  0  0  0  0  0  0  0  0  0  0
   -5.8410   -1.1930    0.0000 N   0  0  0  0  0  0  0  0  0  0  0  0
   -7.1250   -0.4180    0.0000 N   0  0  0  0  0  0  0  0  0  0  0  0
   -6.7840    1.0430    0.0000 C   0  0  0  0  0  0  0  0  0  0  0  0
   -5.2900    1.1700    0.0000 O   0  0  0  0  0  0  0  0  0  0  0  0
    3.1380   -0.5000    0.0000 C   0  0  0  0  0  0  0  0  0  0  0  0
    3.4790    0.9600    0.0000 C   0  0  0  0  0  0  0  0  0  0  0  0
    4.2330   -1.5260    0.0000 C   0  0  0  0  0  0  0  0  0  0  0  0
    5.3280   -2.5510    0.0000 F   0  0  0  0  0  0  0  0  0  0  0  0
    5.2580   -0.4310    0.0000 F   0  0  0  0  0  0  0  0  0  0  0  0
    3.2070   -2.6210    0.0000 F   0  0  0  0  0  0  0  0  0  0  0  0
    2.4570   -3.4220    0.0000 H   0  0  0  0  0  0  0  0  0  0  0  0
   -0.4140   -4.2930    0.0000 H   0  0  0  0  0  0  0  0  0  0  0  0
   -2.2390    1.9240    0.0000 H   0  0  0  0  0  0  0  0  0  0  0  0
   -7.7660    2.1770    0.0000 H   0  0  0  0  0  0  0  0  0  0  0  0
    4.9140    1.3960    0.0000 H   0  0  0  0  0  0  0  0  0  0  0  0
  1  2  1  0  0  0  0
  2  3  1  0  0  0  0
  2  4  1  0  0  0  0
  2  5  1  0  0  0  0
  5  6  2  0  0  0  0
  5 22  1  0  0  0  0
  6  7  1  0  0  0  0
  7  8  2  0  0  0  0
  7 15  1  0  0  0  0
  8  9  1  0  0  0  0
  8 21  1  0  0  0  0
  9 10  2  0  0  0  0
  9 27  1  0  0  0  0
 10 11  1  0  0  0  0
 10 28  1  0  0  0  0
 11 12  2  0  0  0  0
 11 15  1  0  0  0  0
 12 13  1  0  0  0  0
 13 14  2  0  0  0  0
 13 16  1  0  0  0  0
 14 15  1  0  0  0  0
 14 29  1  0  0  0  0
 16 17  2  0  0  0  0
 16 20  1  0  0  0  0
 17 18  1  0  0  0  0
 18 19  2  0  0  0  0
 19 20  1  0  0  0  0
 19 30  1  0  0  0  0
 21 22  2  0  0  0  0
 21 23  1  0  0  0  0
 22 31  1  0  0  0  0
 23 24  1  0  0  0  0
 23 25  1  0  0  0  0
 23 26  1  0  0  0  0
M  END
$$$$
