2D_structures\o77_MMV002350_2D.pdb
 OpenBabel02282413353D

 44 46  0  0  1  0  0  0  0  0999 V2000
    0.1400   -1.7210    0.0000 F   0  0  0  0  0  0  0  0  0  0  0  0
    0.4420   -0.2520    0.0000 C   0  0  0  0  0  0  0  0  0  0  0  0
   -0.6800    0.7440    0.0000 C   0  0  0  0  0  0  0  0  0  0  0  0
   -2.1030    0.2710    0.0000 N   0  0  0  0  0  0  0  0  0  0  0  0
   -3.2250    1.2670    0.0000 C   0  0  0  0  0  0  0  0  0  0  0  0
   -4.6480    0.7930    0.0000 C   0  0  1  0  0  0  0  0  0  0  0  0
   -4.9500   -0.6760    0.0000 N   0  0  0  0  0  0  0  0  0  0  0  0
   -3.8280   -1.6720    0.0000 C   0  0  0  0  0  0  0  0  0  0  0  0
   -2.4050   -1.1980    0.0000 C   0  0  0  0  0  0  0  0  0  0  0  0
   -6.1470    0.8350    0.0000 C   0  0  0  0  0  0  0  0  0  0  0  0
   -0.3780    2.2140    0.0000 C   0  0  0  0  0  0  0  0  0  0  0  0
    1.0450    2.6870    0.0000 C   0  0  0  0  0  0  0  0  0  0  0  0
    2.1670    1.6910    0.0000 C   0  0  0  0  0  0  0  0  0  0  0  0
    1.8650    0.2220    0.0000 C   0  0  0  0  0  0  0  0  0  0  0  0
    2.9870   -0.7740    0.0000 N   0  0  0  0  0  0  0  0  0  0  0  0
    4.4100   -0.3010    0.0000 C   0  0  0  0  0  0  0  0  0  0  0  0
    4.7120    1.1690    0.0000 C   0  0  0  0  0  0  0  0  0  0  0  0
    6.1350    1.6420    0.0000 C   0  0  0  0  0  0  0  0  0  0  0  0
    6.4370    3.1110    0.0000 O   0  0  0  0  0  0  0  0  0  0  0  0
    7.2570    0.6460    0.0000 O   0  0  0  0  0  0  0  0  0  0  0  0
    3.5900    2.1650    0.0000 C   0  0  0  0  0  0  0  0  0  0  0  0
    3.8920    3.6340    0.0000 O   0  0  0  0  0  0  0  0  0  0  0  0
    2.6850   -2.2440    0.0000 C   0  0  0  0  0  0  0  0  0  0  0  0
    2.3840   -3.7130    0.0000 C   0  0  0  0  0  0  0  0  0  0  0  0
   -1.5000    3.2100    0.0000 F   0  0  0  0  0  0  0  0  0  0  0  0
   -3.9380    2.5860    0.0000 H   0  0  0  0  0  0  0  0  0  0  0  0
   -2.0490    2.1980    0.0000 H   0  0  0  0  0  0  0  0  0  0  0  0
   -4.8670    2.2770    0.0000 H   0  0  0  0  0  0  0  0  0  0  0  0
   -5.9380   -1.1450    0.0000 H   0  0  0  0  0  0  0  0  0  0  0  0
   -3.1150   -2.9910    0.0000 H   0  0  0  0  0  0  0  0  0  0  0  0
   -5.0040   -2.6040    0.0000 H   0  0  0  0  0  0  0  0  0  0  0  0
   -0.9050   -1.2400    0.0000 H   0  0  0  0  0  0  0  0  0  0  0  0
   -2.1860   -2.6820    0.0000 H   0  0  0  0  0  0  0  0  0  0  0  0
   -7.6470    0.8770    0.0000 H   0  0  0  0  0  0  0  0  0  0  0  0
   -6.1060    2.3350    0.0000 H   0  0  0  0  0  0  0  0  0  0  0  0
   -6.3110   -0.2460    0.0000 H   0  0  0  0  0  0  0  0  0  0  0  0
    1.3470    4.1560    0.0000 H   0  0  0  0  0  0  0  0  0  0  0  0
    5.5320   -1.2970    0.0000 H   0  0  0  0  0  0  0  0  0  0  0  0
    8.6800    1.1190    0.0000 H   0  0  0  0  0  0  0  0  0  0  0  0
    1.2160   -1.9420    0.0000 H   0  0  0  0  0  0  0  0  0  0  0  0
    4.1550   -2.5450    0.0000 H   0  0  0  0  0  0  0  0  0  0  0  0
    2.0820   -5.1820    0.0000 H   0  0  0  0  0  0  0  0  0  0  0  0
    0.9140   -3.4110    0.0000 H   0  0  0  0  0  0  0  0  0  0  0  0
    3.8530   -4.0150    0.0000 H   0  0  0  0  0  0  0  0  0  0  0  0
  1  2  1  0  0  0  0
  2  3  2  0  0  0  0
  2 14  1  0  0  0  0
  3  4  1  0  0  0  0
  3 11  1  0  0  0  0
  4  5  1  0  0  0  0
  4  9  1  0  0  0  0
  5  6  1  0  0  0  0
  5 26  1  0  0  0  0
  5 27  1  0  0  0  0
  6  7  1  0  0  0  0
  6 10  1  0  0  0  0
  6 28  1  6  0  0  0
  7  8  1  0  0  0  0
  7 29  1  0  0  0  0
  8  9  1  0  0  0  0
  8 30  1  0  0  0  0
  8 31  1  0  0  0  0
  9 32  1  0  0  0  0
  9 33  1  0  0  0  0
 10 34  1  0  0  0  0
 10 35  1  0  0  0  0
 10 36  1  0  0  0  0
 11 12  2  0  0  0  0
 11 25  1  0  0  0  0
 12 13  1  0  0  0  0
 12 37  1  0  0  0  0
 13 14  2  0  0  0  0
 13 21  1  0  0  0  0
 14 15  1  0  0  0  0
 15 16  1  0  0  0  0
 15 23  1  0  0  0  0
 16 17  2  0  0  0  0
 16 38  1  0  0  0  0
 17 18  1  0  0  0  0
 17 21  1  0  0  0  0
 18 19  2  0  0  0  0
 18 20  1  0  0  0  0
 20 39  1  0  0  0  0
 21 22  2  0  0  0  0
 23 24  1  0  0  0  0
 23 40  1  0  0  0  0
 23 41  1  0  0  0  0
 24 42  1  0  0  0  0
 24 43  1  0  0  0  0
 24 44  1  0  0  0  0
M  END
$$$$
