2D_structures\o78_MMV1580483_2D.pdb
 OpenBabel02282413353D

 65 69  0  0  0  0  0  0  0  0999 V2000
   -7.5850    1.3520    0.0000 O   0  0  0  0  0  0  0  0  0  0  0  0
   -6.6940    0.1450    0.0000 C   0  0  0  0  0  0  0  0  0  0  0  0
   -5.1940    0.1560    0.0000 N   0  0  0  0  0  0  0  0  0  0  0  0
   -4.7200   -1.2670    0.0000 C   0  0  0  0  0  0  0  0  0  0  0  0
   -5.9260   -2.1580    0.0000 C   0  0  0  0  0  0  0  0  0  0  0  0
   -7.1470   -1.2850    0.0000 N   0  0  0  0  0  0  0  0  0  0  0  0
   -8.5700   -1.7590    0.0000 C   0  0  0  0  0  0  0  0  0  0  0  0
   -5.7580   -3.6480    0.0000 C   0  0  0  0  0  0  0  0  0  0  0  0
   -4.3830   -4.2480    0.0000 N   0  0  0  0  0  0  0  0  0  0  0  0
   -3.1770   -3.3570    0.0000 C   0  0  0  0  0  0  0  0  0  0  0  0
   -1.8020   -3.9570    0.0000 C   0  0  0  0  0  0  0  0  0  0  0  0
   -0.5950   -3.0660    0.0000 C   0  0  0  0  0  0  0  0  0  0  0  0
   -0.7630   -1.5750    0.0000 C   0  0  0  0  0  0  0  0  0  0  0  0
   -2.1380   -0.9760    0.0000 C   0  0  0  0  0  0  0  0  0  0  0  0
   -3.3450   -1.8660    0.0000 C   0  0  0  0  0  0  0  0  0  0  0  0
    0.4440   -0.6850    0.0000 C   0  0  0  0  0  0  0  0  0  0  0  0
    1.8190   -1.2840    0.0000 C   0  0  0  0  0  0  0  0  0  0  0  0
    3.0260   -0.3930    0.0000 N   0  0  0  0  0  0  0  0  0  0  0  0
    2.8580    1.0970    0.0000 C   0  0  0  0  0  0  0  0  0  0  0  0
    4.0640    1.9880    0.0000 O   0  0  0  0  0  0  0  0  0  0  0  0
    5.4390    1.3880    0.0000 C   0  0  0  0  0  0  0  0  0  0  0  0
    6.8140    0.7880    0.0000 C   0  0  0  0  0  0  0  0  0  0  0  0
    8.1890    0.1890    0.0000 C   0  0  0  0  0  0  0  0  0  0  0  0
    9.5640   -0.4110    0.0000 N   0  0  0  0  0  0  0  0  0  0  0  0
    9.7320   -1.9020    0.0000 C   0  0  0  0  0  0  0  0  0  0  0  0
   10.7710    0.4800    0.0000 C   0  0  0  0  0  0  0  0  0  0  0  0
    1.4830    1.6970    0.0000 C   0  0  0  0  0  0  0  0  0  0  0  0
    0.2760    0.8060    0.0000 C   0  0  0  0  0  0  0  0  0  0  0  0
   -4.3210    1.3760    0.0000 C   0  0  0  0  0  0  0  0  0  0  0  0
   -5.6740    2.0240    0.0000 C   0  0  0  0  0  0  0  0  0  0  0  0
   -5.7900    3.5190    0.0000 C   0  0  0  0  0  0  0  0  0  0  0  0
   -4.5530    4.3680    0.0000 O   0  0  0  0  0  0  0  0  0  0  0  0
   -3.2000    3.7200    0.0000 C   0  0  0  0  0  0  0  0  0  0  0  0
   -3.0840    2.2250    0.0000 C   0  0  0  0  0  0  0  0  0  0  0  0
   -9.9930   -2.2340    0.0000 H   0  0  0  0  0  0  0  0  0  0  0  0
   -9.0440   -0.3360    0.0000 H   0  0  0  0  0  0  0  0  0  0  0  0
   -8.0950   -3.1820    0.0000 H   0  0  0  0  0  0  0  0  0  0  0  0
   -6.9650   -4.5390    0.0000 H   0  0  0  0  0  0  0  0  0  0  0  0
   -1.6340   -5.4470    0.0000 H   0  0  0  0  0  0  0  0  0  0  0  0
    0.7800   -3.6660    0.0000 H   0  0  0  0  0  0  0  0  0  0  0  0
   -2.1260    0.2390    0.0000 H   0  0  0  0  0  0  0  0  0  0  0  0
    1.9870   -2.7750    0.0000 H   0  0  0  0  0  0  0  0  0  0  0  0
    4.8400    0.0130    0.0000 H   0  0  0  0  0  0  0  0  0  0  0  0
    6.0390    2.7630    0.0000 H   0  0  0  0  0  0  0  0  0  0  0  0
    6.2140   -0.5860    0.0000 H   0  0  0  0  0  0  0  0  0  0  0  0
    7.4140    2.1630    0.0000 H   0  0  0  0  0  0  0  0  0  0  0  0
    8.7890    1.5640    0.0000 H   0  0  0  0  0  0  0  0  0  0  0  0
    7.5890   -1.1860    0.0000 H   0  0  0  0  0  0  0  0  0  0  0  0
    9.9000   -3.3920    0.0000 H   0  0  0  0  0  0  0  0  0  0  0  0
   11.2230   -1.7330    0.0000 H   0  0  0  0  0  0  0  0  0  0  0  0
    8.2410   -2.0700    0.0000 H   0  0  0  0  0  0  0  0  0  0  0  0
   11.9780    1.3710    0.0000 H   0  0  0  0  0  0  0  0  0  0  0  0
   11.6620   -0.7270    0.0000 H   0  0  0  0  0  0  0  0  0  0  0  0
    9.8800    1.6870    0.0000 H   0  0  0  0  0  0  0  0  0  0  0  0
    1.3150    3.1870    0.0000 H   0  0  0  0  0  0  0  0  0  0  0  0
   -1.0990    1.4060    0.0000 H   0  0  0  0  0  0  0  0  0  0  0  0
   -3.2710    0.3050    0.0000 H   0  0  0  0  0  0  0  0  0  0  0  0
   -7.1670    2.1690    0.0000 H   0  0  0  0  0  0  0  0  0  0  0  0
   -6.2740    0.9670    0.0000 H   0  0  0  0  0  0  0  0  0  0  0  0
   -6.4110    4.8850    0.0000 H   0  0  0  0  0  0  0  0  0  0  0  0
   -7.2430    3.1450    0.0000 H   0  0  0  0  0  0  0  0  0  0  0  0
   -1.7070    3.5750    0.0000 H   0  0  0  0  0  0  0  0  0  0  0  0
   -2.7980    5.1650    0.0000 H   0  0  0  0  0  0  0  0  0  0  0  0
   -2.4510    1.1880    0.0000 H   0  0  0  0  0  0  0  0  0  0  0  0
   -1.6320    2.5990    0.0000 H   0  0  0  0  0  0  0  0  0  0  0  0
  1  2  2  0  0  0  0
  2  3  1  0  0  0  0
  2  6  1  0  0  0  0
  3  4  1  0  0  0  0
  3 29  1  0  0  0  0
  4  5  2  0  0  0  0
  4 15  1  0  0  0  0
  5  6  1  0  0  0  0
  5  8  1  0  0  0  0
  6  7  1  0  0  0  0
  7 35  1  0  0  0  0
  7 36  1  0  0  0  0
  7 37  1  0  0  0  0
  8  9  2  0  0  0  0
  8 38  1  0  0  0  0
  9 10  1  0  0  0  0
 10 11  2  0  0  0  0
 10 15  1  0  0  0  0
 11 12  1  0  0  0  0
 11 39  1  0  0  0  0
 12 13  2  0  0  0  0
 12 40  1  0  0  0  0
 13 14  1  0  0  0  0
 13 16  1  0  0  0  0
 14 15  2  0  0  0  0
 14 41  1  0  0  0  0
 16 17  2  0  0  0  0
 16 28  1  0  0  0  0
 17 18  1  0  0  0  0
 17 42  1  0  0  0  0
 18 19  2  0  0  0  0
 19 20  1  0  0  0  0
 19 27  1  0  0  0  0
 20 21  1  0  0  0  0
 21 22  1  0  0  0  0
 21 43  1  0  0  0  0
 21 44  1  0  0  0  0
 22 23  1  0  0  0  0
 22 45  1  0  0  0  0
 22 46  1  0  0  0  0
 23 24  1  0  0  0  0
 23 47  1  0  0  0  0
 23 48  1  0  0  0  0
 24 25  1  0  0  0  0
 24 26  1  0  0  0  0
 25 49  1  0  0  0  0
 25 50  1  0  0  0  0
 25 51  1  0  0  0  0
 26 52  1  0  0  0  0
 26 53  1  0  0  0  0
 26 54  1  0  0  0  0
 27 28  2  0  0  0  0
 27 55  1  0  0  0  0
 28 56  1  0  0  0  0
 29 30  1  0  0  0  0
 29 34  1  0  0  0  0
 29 57  1  0  0  0  0
 30 31  1  0  0  0  0
 30 58  1  0  0  0  0
 30 59  1  0  0  0  0
 31 32  1  0  0  0  0
 31 60  1  0  0  0  0
 31 61  1  0  0  0  0
 32 33  1  0  0  0  0
 33 34  1  0  0  0  0
 33 62  1  0  0  0  0
 33 63  1  0  0  0  0
 34 64  1  0  0  0  0
 34 65  1  0  0  0  0
M  END
$$$$
