2D_structures\o80_MMV003069_2D.pdb
 OpenBabel02282413353D

 75 80  0  0  1  0  0  0  0  0999 V2000
    8.1910    0.9200    0.0000 C   0  0  0  0  0  0  0  0  0  0  0  0
    7.1710   -0.1810    0.0000 C   0  0  1  0  0  0  0  0  0  0  0  0
    6.5900   -1.5630    0.0000 C   0  0  0  0  0  0  0  0  0  0  0  0
    5.1020   -1.7510    0.0000 C   0  0  0  0  0  0  0  0  0  0  0  0
    4.1950   -0.5560    0.0000 C   0  0  1  0  0  0  0  0  0  0  0  0
    4.7770    0.8270    0.0000 N   0  0  0  0  0  0  0  0  0  0  0  0
    6.2650    1.0140    0.0000 C   0  0  0  0  0  0  0  0  0  0  0  0
    3.4720   -1.8700    0.0000 O   0  0  0  0  0  0  0  0  0  0  0  0
    1.9990   -1.5890    0.0000 C   0  0  1  0  0  0  0  0  0  0  0  0
    0.6410   -2.2270    0.0000 C   0  0  0  0  0  0  0  0  0  0  0  0
   -0.3850   -1.1340    0.0000 C   0  0  1  0  0  0  0  0  0  0  0  0
   -1.8850   -1.1650    0.0000 C   0  0  1  0  0  0  0  0  0  0  0  0
   -2.6080   -2.4790    0.0000 C   0  0  0  0  0  0  0  0  0  0  0  0
   -4.1080   -2.5100    0.0000 C   0  0  0  0  0  0  0  0  0  0  0  0
   -4.8840   -1.2270    0.0000 C   0  0  1  0  0  0  0  0  0  0  0  0
   -6.3840   -1.2580    0.0000 C   0  0  0  0  0  0  0  0  0  0  0  0
   -7.1610    0.0250    0.0000 C   0  0  1  0  0  0  0  0  0  0  0  0
   -8.3300    0.9650    0.0000 O   0  0  0  0  0  0  0  0  0  0  0  0
   -6.4380    1.3390    0.0000 C   0  0  0  0  0  0  0  0  0  0  0  0
   -4.9380    1.3710    0.0000 C   0  0  0  0  0  0  0  0  0  0  0  0
   -4.1610    0.0870    0.0000 C   0  0  1  0  0  0  0  0  0  0  0  0
   -3.4390    1.4020    0.0000 C   0  0  0  0  0  0  0  0  0  0  0  0
   -2.6620    0.1180    0.0000 C   0  0  1  0  0  0  0  0  0  0  0  0
   -1.9390    1.4330    0.0000 C   0  0  0  0  0  0  0  0  0  0  0  0
   -0.4390    1.4640    0.0000 C   0  0  0  0  0  0  0  0  0  0  0  0
    0.3380    0.1810    0.0000 C   0  0  1  0  0  0  0  0  0  0  0  0
    1.1940    1.4120    0.0000 C   0  0  0  0  0  0  0  0  0  0  0  0
    1.8110   -0.1010    0.0000 C   0  0  1  0  0  0  0  0  0  0  0  0
    3.1680    0.5380    0.0000 C   0  0  1  0  0  0  0  0  0  0  0  0
    2.3920    1.8210    0.0000 C   0  0  0  0  0  0  0  0  0  0  0  0
    9.2100    2.0200    0.0000 H   0  0  0  0  0  0  0  0  0  0  0  0
    9.2910   -0.1000    0.0000 H   0  0  0  0  0  0  0  0  0  0  0  0
    7.6760    1.5290    0.0000 H   0  0  0  0  0  0  0  0  0  0  0  0
    8.4320   -0.9930    0.0000 H   0  0  0  0  0  0  0  0  0  0  0  0
    8.0520   -1.8960    0.0000 H   0  0  0  0  0  0  0  0  0  0  0  0
    6.5160   -3.0610    0.0000 H   0  0  0  0  0  0  0  0  0  0  0  0
    5.5450   -3.1840    0.0000 H   0  0  0  0  0  0  0  0  0  0  0  0
    3.9730   -2.7390    0.0000 H   0  0  0  0  0  0  0  0  0  0  0  0
    4.1860    2.2060    0.0000 H   0  0  0  0  0  0  0  0  0  0  0  0
    5.8210    2.4470    0.0000 H   0  0  0  0  0  0  0  0  0  0  0  0
    6.9240    1.4620    0.0000 H   0  0  0  0  0  0  0  0  0  0  0  0
    2.3660   -3.0430    0.0000 H   0  0  0  0  0  0  0  0  0  0  0  0
    1.2560   -3.5960    0.0000 H   0  0  0  0  0  0  0  0  0  0  0  0
   -0.2990   -3.3960    0.0000 H   0  0  0  0  0  0  0  0  0  0  0  0
   -0.9670   -2.5160    0.0000 H   0  0  0  0  0  0  0  0  0  0  0  0
   -3.3850   -1.1960    0.0000 H   0  0  0  0  0  0  0  0  0  0  0  0
   -2.8380   -3.9610    0.0000 H   0  0  0  0  0  0  0  0  0  0  0  0
   -1.3470   -3.2920    0.0000 H   0  0  0  0  0  0  0  0  0  0  0  0
   -5.3330   -3.3750    0.0000 H   0  0  0  0  0  0  0  0  0  0  0  0
   -3.8160   -3.9820    0.0000 H   0  0  0  0  0  0  0  0  0  0  0  0
   -5.6070   -2.5410    0.0000 H   0  0  0  0  0  0  0  0  0  0  0  0
   -7.7830   -1.8000    0.0000 H   0  0  0  0  0  0  0  0  0  0  0  0
   -6.4580   -2.7560    0.0000 H   0  0  0  0  0  0  0  0  0  0  0  0
   -8.2900   -0.9630    0.0000 H   0  0  0  0  0  0  0  0  0  0  0  0
   -8.2820    2.4650    0.0000 H   0  0  0  0  0  0  0  0  0  0  0  0
   -6.2080    2.8220    0.0000 H   0  0  0  0  0  0  0  0  0  0  0  0
   -7.7880    1.9930    0.0000 H   0  0  0  0  0  0  0  0  0  0  0  0
   -3.8270    2.3780    0.0000 H   0  0  0  0  0  0  0  0  0  0  0  0
   -5.4060    2.7960    0.0000 H   0  0  0  0  0  0  0  0  0  0  0  0
   -2.7160    2.7160    0.0000 H   0  0  0  0  0  0  0  0  0  0  0  0
   -4.4060    2.5480    0.0000 H   0  0  0  0  0  0  0  0  0  0  0  0
   -1.9390    1.3810    0.0000 H   0  0  0  0  0  0  0  0  0  0  0  0
   -1.1620    0.1500    0.0000 H   0  0  0  0  0  0  0  0  0  0  0  0
   -1.7090    2.9150    0.0000 H   0  0  0  0  0  0  0  0  0  0  0  0
   -3.0910    2.3930    0.0000 H   0  0  0  0  0  0  0  0  0  0  0  0
    0.7870    2.3280    0.0000 H   0  0  0  0  0  0  0  0  0  0  0  0
   -0.7300    2.9350    0.0000 H   0  0  0  0  0  0  0  0  0  0  0  0
    1.8940    2.7390    0.0000 H   0  0  0  0  0  0  0  0  0  0  0  0
    2.5960    0.8790    0.0000 H   0  0  0  0  0  0  0  0  0  0  0  0
   -0.0380    2.2690    0.0000 H   0  0  0  0  0  0  0  0  0  0  0  0
    1.0880   -1.4150    0.0000 H   0  0  0  0  0  0  0  0  0  0  0  0
    3.9590    1.8120    0.0000 H   0  0  0  0  0  0  0  0  0  0  0  0
    1.7770    3.1890    0.0000 H   0  0  0  0  0  0  0  0  0  0  0  0
    3.5710    2.7480    0.0000 H   0  0  0  0  0  0  0  0  0  0  0  0
    0.9590    1.3780    0.0000 H   0  0  0  0  0  0  0  0  0  0  0  0
  1  2  1  0  0  0  0
  1 31  1  0  0  0  0
  1 32  1  0  0  0  0
  1 33  1  0  0  0  0
  2  3  1  0  0  0  0
  2  7  1  0  0  0  0
  2 34  1  6  0  0  0
  3  4  1  0  0  0  0
  3 35  1  0  0  0  0
  3 36  1  0  0  0  0
  4  5  1  0  0  0  0
  4 37  1  0  0  0  0
  4 38  1  0  0  0  0
  5  6  1  0  0  0  0
  5  8  1  6  0  0  0
  5 29  1  0  0  0  0
  6  7  1  0  0  0  0
  6 39  1  0  0  0  0
  7 40  1  0  0  0  0
  7 41  1  0  0  0  0
  8  9  1  0  0  0  0
  9 10  1  0  0  0  0
  9 28  1  0  0  0  0
  9 42  1  6  0  0  0
 10 11  1  0  0  0  0
 10 43  1  0  0  0  0
 10 44  1  0  0  0  0
 11 12  1  0  0  0  0
 11 26  1  0  0  0  0
 11 45  1  6  0  0  0
 12 13  1  0  0  0  0
 12 23  1  0  0  0  0
 12 46  1  6  0  0  0
 13 14  1  0  0  0  0
 13 47  1  0  0  0  0
 13 48  1  0  0  0  0
 14 15  1  0  0  0  0
 14 49  1  0  0  0  0
 14 50  1  0  0  0  0
 15 16  1  0  0  0  0
 15 21  1  0  0  0  0
 15 51  1  6  0  0  0
 16 17  1  0  0  0  0
 16 52  1  0  0  0  0
 16 53  1  0  0  0  0
 17 18  1  0  0  0  0
 17 19  1  0  0  0  0
 17 54  1  6  0  0  0
 18 55  1  0  0  0  0
 19 20  1  0  0  0  0
 19 56  1  0  0  0  0
 19 57  1  0  0  0  0
 20 21  1  0  0  0  0
 20 58  1  0  0  0  0
 20 59  1  0  0  0  0
 21 22  1  1  0  0  0
 21 23  1  0  0  0  0
 22 60  1  0  0  0  0
 22 61  1  0  0  0  0
 22 62  1  0  0  0  0
 23 24  1  0  0  0  0
 23 63  1  6  0  0  0
 24 25  1  0  0  0  0
 24 64  1  0  0  0  0
 24 65  1  0  0  0  0
 25 26  1  0  0  0  0
 25 66  1  0  0  0  0
 25 67  1  0  0  0  0
 26 27  1  1  0  0  0
 26 28  1  0  0  0  0
 27 68  1  0  0  0  0
 27 69  1  0  0  0  0
 27 70  1  0  0  0  0
 28 29  1  0  0  0  0
 28 71  1  6  0  0  0
 29 30  1  0  0  0  0
 29 72  1  6  0  0  0
 30 73  1  0  0  0  0
 30 74  1  0  0  0  0
 30 75  1  0  0  0  0
M  END
$$$$
