MODEL 1
REMARK VINA RESULT:      -6.9      0.000      0.000
REMARK  Name = ./3D_structures\o16_MMV1581555_3D.pdb
REMARK  3 active torsions:
REMARK  status: ('A' for Active; 'I' for Inactive)
REMARK    1  A    between atoms: N1_1  and  C1_2
REMARK    2  A    between atoms: C5_6  and  C7_8
REMARK    3  A    between atoms: N5_14  and  C10_15
REMARK                            x       y       z     vdW  Elec       q    Type
REMARK                         _______ _______ _______ _____ _____    ______ ____
ROOT
ATOM      1  C7  UNL     1     155.852 157.750 166.082  0.00  0.00    +0.000 C 
ATOM      2  N2  UNL     1     156.601 158.673 165.466  0.00  0.00    +0.000 NA
ATOM      3  C8  UNL     1     157.537 158.325 164.535  0.00  0.00    +0.000 C 
ATOM      4  N3  UNL     1     158.332 159.299 163.879  0.00  0.00    +0.000 N 
ATOM      5  N4  UNL     1     157.723 157.017 164.219  0.00  0.00    +0.000 NA
ATOM      6  C9  UNL     1     156.970 156.088 164.838  0.00  0.00    +0.000 C 
ATOM      7  N5  UNL     1     157.116 154.701 164.552  0.00  0.00    +0.000 N 
ATOM      8  N6  UNL     1     156.050 156.462 165.755  0.00  0.00    +0.000 NA
ATOM      9  H7  UNL     1     158.641 159.210 162.882  0.00  0.00    +0.000 HD
ATOM     10  H8  UNL     1     158.606 160.135 164.443  0.00  0.00    +0.000 HD
ATOM     11  H9  UNL     1     156.526 153.996 165.039  0.00  0.00    +0.000 HD
ENDROOT
BRANCH   7  12
ATOM     12  C10 UNL     1     158.089 154.240 163.573  0.00  0.00    +0.000 C 
ATOM     13  C11 UNL     1     157.411 153.322 162.576  0.00  0.00    +0.000 C 
ATOM     14  C12 UNL     1     157.434 152.014 163.343  0.00  0.00    +0.000 A 
ATOM     15  C13 UNL     1     156.660 150.872 163.178  0.00  0.00    +0.000 A 
ATOM     16  C14 UNL     1     156.873 149.808 164.014  0.00  0.00    +0.000 A 
ATOM     17  C15 UNL     1     157.823 149.818 165.011  0.00  0.00    +0.000 A 
ATOM     18  C16 UNL     1     158.588 150.946 165.172  0.00  0.00    +0.000 A 
ATOM     19  C17 UNL     1     158.383 152.045 164.326  0.00  0.00    +0.000 A 
ATOM     20  C18 UNL     1     159.086 153.376 164.300  0.00  0.00    +0.000 C 
ENDBRANCH   7  12
BRANCH   1  25
ATOM     21  C1  UNL     1     153.080 159.583 167.862  0.00  0.00    +0.000 A 
ATOM     22  C2  UNL     1     152.934 158.769 168.992  0.00  0.00    +0.000 A 
ATOM     23  C3  UNL     1     153.720 157.649 169.168  0.00  0.00    +0.000 A 
ATOM     24  C4  UNL     1     154.659 157.342 168.207  0.00  0.00    +0.000 A 
ATOM     25  C5  UNL     1     154.846 158.106 167.081  0.00  0.00    +0.000 A 
ATOM     26  C6  UNL     1     154.040 159.217 166.940  0.00  0.00    +0.000 A 
BRANCH  21  27
ATOM     27  N1  UNL     1     152.269 160.743 167.675  0.00  0.00    +0.000 N 
ATOM     28  H1  UNL     1     152.611 161.600 167.193  0.00  0.00    +0.000 HD
ATOM     29  H2  UNL     1     151.290 160.700 168.049  0.00  0.00    +0.000 HD
ENDBRANCH  21  27
ENDBRANCH   1  25
TORSDOF 3
ENDMDL
MODEL 2
REMARK VINA RESULT:      -6.6     11.371     13.439
REMARK  Name = ./3D_structures\o16_MMV1581555_3D.pdb
REMARK  3 active torsions:
REMARK  status: ('A' for Active; 'I' for Inactive)
REMARK    1  A    between atoms: N1_1  and  C1_2
REMARK    2  A    between atoms: C5_6  and  C7_8
REMARK    3  A    between atoms: N5_14  and  C10_15
REMARK                            x       y       z     vdW  Elec       q    Type
REMARK                         _______ _______ _______ _____ _____    ______ ____
ROOT
ATOM      1  C7  UNL     1     147.914 165.794 166.202  0.00  0.00    +0.000 C 
ATOM      2  N2  UNL     1     147.120 166.855 166.008  0.00  0.00    +0.000 NA
ATOM      3  C8  UNL     1     145.795 166.708 165.716  0.00  0.00    +0.000 C 
ATOM      4  N3  UNL     1     144.951 167.829 165.510  0.00  0.00    +0.000 N 
ATOM      5  N4  UNL     1     145.256 165.465 165.616  0.00  0.00    +0.000 NA
ATOM      6  C9  UNL     1     146.054 164.397 165.812  0.00  0.00    +0.000 C 
ATOM      7  N5  UNL     1     145.552 163.069 165.722  0.00  0.00    +0.000 N 
ATOM      8  N6  UNL     1     147.363 164.572 166.101  0.00  0.00    +0.000 NA
ATOM      9  H7  UNL     1     143.943 167.848 165.797  0.00  0.00    +0.000 HD
ATOM     10  H8  UNL     1     145.383 168.661 165.048  0.00  0.00    +0.000 HD
ATOM     11  H9  UNL     1     146.181 162.254 165.876  0.00  0.00    +0.000 HD
ENDROOT
BRANCH   7  12
ATOM     12  C10 UNL     1     144.152 162.819 165.415  0.00  0.00    +0.000 C 
ATOM     13  C11 UNL     1     143.683 161.580 166.152  0.00  0.00    +0.000 C 
ATOM     14  C12 UNL     1     144.170 160.497 165.210  0.00  0.00    +0.000 A 
ATOM     15  C13 UNL     1     144.405 159.149 165.450  0.00  0.00    +0.000 A 
ATOM     16  C14 UNL     1     144.855 158.366 164.420  0.00  0.00    +0.000 A 
ATOM     17  C15 UNL     1     145.085 158.857 163.154  0.00  0.00    +0.000 A 
ATOM     18  C16 UNL     1     144.852 160.188 162.917  0.00  0.00    +0.000 A 
ATOM     19  C17 UNL     1     144.392 161.004 163.960  0.00  0.00    +0.000 A 
ATOM     20  C18 UNL     1     144.064 162.473 163.952  0.00  0.00    +0.000 C 
ENDBRANCH   7  12
BRANCH   1  25
ATOM     21  C1  UNL     1     151.663 165.856 165.821  0.00  0.00    +0.000 A 
ATOM     22  C2  UNL     1     152.037 166.202 167.126  0.00  0.00    +0.000 A 
ATOM     23  C3  UNL     1     151.088 166.409 168.106  0.00  0.00    +0.000 A 
ATOM     24  C4  UNL     1     149.756 166.271 167.778  0.00  0.00    +0.000 A 
ATOM     25  C5  UNL     1     149.335 165.933 166.515  0.00  0.00    +0.000 A 
ATOM     26  C6  UNL     1     150.313 165.734 165.563  0.00  0.00    +0.000 A 
BRANCH  21  27
ATOM     27  N1  UNL     1     152.641 165.640 164.804  0.00  0.00    +0.000 N 
ATOM     28  H1  UNL     1     153.469 166.256 164.676  0.00  0.00    +0.000 HD
ATOM     29  H2  UNL     1     152.491 164.816 164.172  0.00  0.00    +0.000 HD
ENDBRANCH  21  27
ENDBRANCH   1  25
TORSDOF 3
ENDMDL
MODEL 3
REMARK VINA RESULT:      -6.6      2.293      2.469
REMARK  Name = ./3D_structures\o16_MMV1581555_3D.pdb
REMARK  3 active torsions:
REMARK  status: ('A' for Active; 'I' for Inactive)
REMARK    1  A    between atoms: N1_1  and  C1_2
REMARK    2  A    between atoms: C5_6  and  C7_8
REMARK    3  A    between atoms: N5_14  and  C10_15
REMARK                            x       y       z     vdW  Elec       q    Type
REMARK                         _______ _______ _______ _____ _____    ______ ____
ROOT
ATOM      1  C7  UNL     1     158.215 157.573 167.534  0.00  0.00    +0.000 C 
ATOM      2  N2  UNL     1     159.285 158.235 167.075  0.00  0.00    +0.000 NA
ATOM      3  C8  UNL     1     159.921 157.852 165.929  0.00  0.00    +0.000 C 
ATOM      4  N3  UNL     1     161.053 158.551 165.439  0.00  0.00    +0.000 N 
ATOM      5  N4  UNL     1     159.470 156.778 165.231  0.00  0.00    +0.000 NA
ATOM      6  C9  UNL     1     158.394 156.112 165.691  0.00  0.00    +0.000 C 
ATOM      7  N5  UNL     1     157.872 154.979 165.007  0.00  0.00    +0.000 N 
ATOM      8  N6  UNL     1     157.784 156.513 166.829  0.00  0.00    +0.000 NA
ATOM      9  H7  UNL     1     161.252 158.676 164.418  0.00  0.00    +0.000 HD
ATOM     10  H8  UNL     1     161.702 158.950 166.155  0.00  0.00    +0.000 HD
ATOM     11  H9  UNL     1     157.040 154.474 165.376  0.00  0.00    +0.000 HD
ENDROOT
BRANCH   7  12
ATOM     12  C10 UNL     1     158.487 154.501 163.778  0.00  0.00    +0.000 C 
ATOM     13  C11 UNL     1     157.440 153.826 162.914  0.00  0.00    +0.000 C 
ATOM     14  C12 UNL     1     157.415 152.445 163.538  0.00  0.00    +0.000 A 
ATOM     15  C13 UNL     1     156.434 151.462 163.483  0.00  0.00    +0.000 A 
ATOM     16  C14 UNL     1     156.649 150.282 164.146  0.00  0.00    +0.000 A 
ATOM     17  C15 UNL     1     157.796 150.026 164.865  0.00  0.00    +0.000 A 
ATOM     18  C16 UNL     1     158.764 150.998 164.917  0.00  0.00    +0.000 A 
ATOM     19  C17 UNL     1     158.561 152.211 164.246  0.00  0.00    +0.000 A 
ATOM     20  C18 UNL     1     159.461 153.414 164.152  0.00  0.00    +0.000 C 
ENDBRANCH   7  12
BRANCH   1  25
ATOM     21  C1  UNL     1     155.458 158.383 169.973  0.00  0.00    +0.000 A 
ATOM     22  C2  UNL     1     156.219 158.722 171.100  0.00  0.00    +0.000 A 
ATOM     23  C3  UNL     1     157.597 158.687 171.063  0.00  0.00    +0.000 A 
ATOM     24  C4  UNL     1     158.219 158.310 169.893  0.00  0.00    +0.000 A 
ATOM     25  C5  UNL     1     157.523 157.968 168.759  0.00  0.00    +0.000 A 
ATOM     26  C6  UNL     1     156.145 158.015 168.835  0.00  0.00    +0.000 A 
BRANCH  21  27
ATOM     27  N1  UNL     1     154.031 158.418 170.005  0.00  0.00    +0.000 N 
ATOM     28  H1  UNL     1     153.438 157.918 169.312  0.00  0.00    +0.000 HD
ATOM     29  H2  UNL     1     153.589 158.980 170.773  0.00  0.00    +0.000 HD
ENDBRANCH  21  27
ENDBRANCH   1  25
TORSDOF 3
ENDMDL
MODEL 4
REMARK VINA RESULT:      -6.5      6.042      8.018
REMARK  Name = ./3D_structures\o16_MMV1581555_3D.pdb
REMARK  3 active torsions:
REMARK  status: ('A' for Active; 'I' for Inactive)
REMARK    1  A    between atoms: N1_1  and  C1_2
REMARK    2  A    between atoms: C5_6  and  C7_8
REMARK    3  A    between atoms: N5_14  and  C10_15
REMARK                            x       y       z     vdW  Elec       q    Type
REMARK                         _______ _______ _______ _____ _____    ______ ____
ROOT
ATOM      1  C7  UNL     1     158.792 157.943 167.820  0.00  0.00    +0.000 C 
ATOM      2  N2  UNL     1     158.674 157.419 166.594  0.00  0.00    +0.000 NA
ATOM      3  C8  UNL     1     159.707 157.457 165.702  0.00  0.00    +0.000 C 
ATOM      4  N3  UNL     1     159.587 156.902 164.402  0.00  0.00    +0.000 N 
ATOM      5  N4  UNL     1     160.883 158.038 166.052  0.00  0.00    +0.000 NA
ATOM      6  C9  UNL     1     161.002 158.567 167.285  0.00  0.00    +0.000 C 
ATOM      7  N5  UNL     1     162.208 159.189 167.714  0.00  0.00    +0.000 N 
ATOM      8  N6  UNL     1     159.963 158.513 168.149  0.00  0.00    +0.000 NA
ATOM      9  H7  UNL     1     160.382 156.437 163.902  0.00  0.00    +0.000 HD
ATOM     10  H8  UNL     1     158.649 156.975 163.948  0.00  0.00    +0.000 HD
ATOM     11  H9  UNL     1     162.284 159.593 168.670  0.00  0.00    +0.000 HD
ENDROOT
BRANCH   7  12
ATOM     12  C10 UNL     1     163.359 159.276 166.828  0.00  0.00    +0.000 C 
ATOM     13  C11 UNL     1     164.398 158.254 167.244  0.00  0.00    +0.000 C 
ATOM     14  C12 UNL     1     165.094 159.006 168.361  0.00  0.00    +0.000 A 
ATOM     15  C13 UNL     1     165.876 158.526 169.405  0.00  0.00    +0.000 A 
ATOM     16  C14 UNL     1     166.396 159.421 170.302  0.00  0.00    +0.000 A 
ATOM     17  C15 UNL     1     166.179 160.778 170.216  0.00  0.00    +0.000 A 
ATOM     18  C16 UNL     1     165.408 161.251 169.184  0.00  0.00    +0.000 A 
ATOM     19  C17 UNL     1     164.867 160.350 168.257  0.00  0.00    +0.000 A 
ATOM     20  C18 UNL     1     164.004 160.619 167.054  0.00  0.00    +0.000 C 
ENDBRANCH   7  12
BRANCH   1  25
ATOM     21  C1  UNL     1     155.376 157.434 169.330  0.00  0.00    +0.000 A 
ATOM     22  C2  UNL     1     155.622 157.854 170.643  0.00  0.00    +0.000 A 
ATOM     23  C3  UNL     1     156.873 158.292 171.026  0.00  0.00    +0.000 A 
ATOM     24  C4  UNL     1     157.884 158.310 170.089  0.00  0.00    +0.000 A 
ATOM     25  C5  UNL     1     157.696 157.911 168.788  0.00  0.00    +0.000 A 
ATOM     26  C6  UNL     1     156.432 157.478 168.444  0.00  0.00    +0.000 A 
BRANCH  21  27
ATOM     27  N1  UNL     1     154.083 156.979 168.928  0.00  0.00    +0.000 N 
ATOM     28  H1  UNL     1     153.788 155.984 168.996  0.00  0.00    +0.000 HD
ATOM     29  H2  UNL     1     153.423 157.703 168.552  0.00  0.00    +0.000 HD
ENDBRANCH  21  27
ENDBRANCH   1  25
TORSDOF 3
ENDMDL
MODEL 5
REMARK VINA RESULT:      -6.4      9.691     13.304
REMARK  Name = ./3D_structures\o16_MMV1581555_3D.pdb
REMARK  3 active torsions:
REMARK  status: ('A' for Active; 'I' for Inactive)
REMARK    1  A    between atoms: N1_1  and  C1_2
REMARK    2  A    between atoms: C5_6  and  C7_8
REMARK    3  A    between atoms: N5_14  and  C10_15
REMARK                            x       y       z     vdW  Elec       q    Type
REMARK                         _______ _______ _______ _____ _____    ______ ____
ROOT
ATOM      1  C7  UNL     1     145.470 164.737 166.592  0.00  0.00    +0.000 C 
ATOM      2  N2  UNL     1     145.366 164.829 167.923  0.00  0.00    +0.000 NA
ATOM      3  C8  UNL     1     146.463 165.039 168.710  0.00  0.00    +0.000 C 
ATOM      4  N3  UNL     1     146.357 165.138 170.120  0.00  0.00    +0.000 N 
ATOM      5  N4  UNL     1     147.691 165.159 168.142  0.00  0.00    +0.000 NA
ATOM      6  C9  UNL     1     147.796 165.066 166.802  0.00  0.00    +0.000 C 
ATOM      7  N5  UNL     1     149.053 165.182 166.145  0.00  0.00    +0.000 N 
ATOM      8  N6  UNL     1     146.693 164.858 166.048  0.00  0.00    +0.000 NA
ATOM      9  H7  UNL     1     146.962 165.771 170.697  0.00  0.00    +0.000 HD
ATOM     10  H8  UNL     1     145.633 164.540 170.578  0.00  0.00    +0.000 HD
ATOM     11  H9  UNL     1     149.117 165.108 165.109  0.00  0.00    +0.000 HD
ENDROOT
BRANCH   7  12
ATOM     12  C10 UNL     1     150.273 165.408 166.905  0.00  0.00    +0.000 C 
ATOM     13  C11 UNL     1     151.322 166.035 166.008  0.00  0.00    +0.000 C 
ATOM     14  C12 UNL     1     151.875 164.801 165.323  0.00  0.00    +0.000 A 
ATOM     15  C13 UNL     1     152.582 164.687 164.132  0.00  0.00    +0.000 A 
ATOM     16  C14 UNL     1     152.973 163.440 163.718  0.00  0.00    +0.000 A 
ATOM     17  C15 UNL     1     152.696 162.294 164.429  0.00  0.00    +0.000 A 
ATOM     18  C16 UNL     1     151.998 162.410 165.605  0.00  0.00    +0.000 A 
ATOM     19  C17 UNL     1     151.589 163.676 166.045  0.00  0.00    +0.000 A 
ATOM     20  C18 UNL     1     150.826 164.058 167.284  0.00  0.00    +0.000 C 
ENDBRANCH   7  12
BRANCH   1  25
ATOM     21  C1  UNL     1     143.098 163.127 164.144  0.00  0.00    +0.000 A 
ATOM     22  C2  UNL     1     142.086 164.095 164.111  0.00  0.00    +0.000 A 
ATOM     23  C3  UNL     1     142.176 165.244 164.868  0.00  0.00    +0.000 A 
ATOM     24  C4  UNL     1     143.286 165.426 165.665  0.00  0.00    +0.000 A 
ATOM     25  C5  UNL     1     144.307 164.511 165.735  0.00  0.00    +0.000 A 
ATOM     26  C6  UNL     1     144.180 163.374 164.964  0.00  0.00    +0.000 A 
BRANCH  21  27
ATOM     27  N1  UNL     1     143.010 161.936 163.362  0.00  0.00    +0.000 N 
ATOM     28  H1  UNL     1     142.174 161.316 163.369  0.00  0.00    +0.000 HD
ATOM     29  H2  UNL     1     143.839 161.701 162.764  0.00  0.00    +0.000 HD
ENDBRANCH  21  27
ENDBRANCH   1  25
TORSDOF 3
ENDMDL
MODEL 6
REMARK VINA RESULT:      -6.4      2.483      7.873
REMARK  Name = ./3D_structures\o16_MMV1581555_3D.pdb
REMARK  3 active torsions:
REMARK  status: ('A' for Active; 'I' for Inactive)
REMARK    1  A    between atoms: N1_1  and  C1_2
REMARK    2  A    between atoms: C5_6  and  C7_8
REMARK    3  A    between atoms: N5_14  and  C10_15
REMARK                            x       y       z     vdW  Elec       q    Type
REMARK                         _______ _______ _______ _____ _____    ______ ____
ROOT
ATOM      1  C7  UNL     1     157.914 153.730 164.069  0.00  0.00    +0.000 C 
ATOM      2  N2  UNL     1     157.853 154.324 162.870  0.00  0.00    +0.000 NA
ATOM      3  C8  UNL     1     157.906 155.683 162.746  0.00  0.00    +0.000 C 
ATOM      4  N3  UNL     1     157.843 156.316 161.478  0.00  0.00    +0.000 N 
ATOM      5  N4  UNL     1     158.021 156.461 163.853  0.00  0.00    +0.000 NA
ATOM      6  C9  UNL     1     158.082 155.864 165.059  0.00  0.00    +0.000 C 
ATOM      7  N5  UNL     1     158.203 156.622 166.258  0.00  0.00    +0.000 N 
ATOM      8  N6  UNL     1     158.028 154.516 165.153  0.00  0.00    +0.000 NA
ATOM      9  H7  UNL     1     158.368 157.194 161.250  0.00  0.00    +0.000 HD
ATOM     10  H8  UNL     1     157.238 155.861 160.758  0.00  0.00    +0.000 HD
ATOM     11  H9  UNL     1     158.249 156.146 167.182  0.00  0.00    +0.000 HD
ENDROOT
BRANCH   7  12
ATOM     12  C10 UNL     1     158.267 158.075 166.219  0.00  0.00    +0.000 C 
ATOM     13  C11 UNL     1     159.248 158.569 167.263  0.00  0.00    +0.000 C 
ATOM     14  C12 UNL     1     158.369 158.556 168.498  0.00  0.00    +0.000 A 
ATOM     15  C13 UNL     1     158.722 158.531 169.841  0.00  0.00    +0.000 A 
ATOM     16  C14 UNL     1     157.726 158.518 170.782  0.00  0.00    +0.000 A 
ATOM     17  C15 UNL     1     156.388 158.529 170.456  0.00  0.00    +0.000 A 
ATOM     18  C16 UNL     1     156.041 158.554 169.128  0.00  0.00    +0.000 A 
ATOM     19  C17 UNL     1     157.046 158.567 168.152  0.00  0.00    +0.000 A 
ATOM     20  C18 UNL     1     156.922 158.598 166.652  0.00  0.00    +0.000 C 
ENDBRANCH   7  12
BRANCH   1  25
ATOM     21  C1  UNL     1     158.835 150.204 165.028  0.00  0.00    +0.000 A 
ATOM     22  C2  UNL     1     157.736 149.511 164.503  0.00  0.00    +0.000 A 
ATOM     23  C3  UNL     1     156.721 150.180 163.851  0.00  0.00    +0.000 A 
ATOM     24  C4  UNL     1     156.804 151.550 163.725  0.00  0.00    +0.000 A 
ATOM     25  C5  UNL     1     157.858 152.277 164.220  0.00  0.00    +0.000 A 
ATOM     26  C6  UNL     1     158.854 151.574 164.866  0.00  0.00    +0.000 A 
BRANCH  21  27
ATOM     27  N1  UNL     1     159.889 149.517 165.703  0.00  0.00    +0.000 N 
ATOM     28  H1  UNL     1     160.864 149.484 165.342  0.00  0.00    +0.000 HD
ATOM     29  H2  UNL     1     159.640 149.034 166.601  0.00  0.00    +0.000 HD
ENDBRANCH  21  27
ENDBRANCH   1  25
TORSDOF 3
ENDMDL
MODEL 7
REMARK VINA RESULT:      -6.2      5.181      7.484
REMARK  Name = ./3D_structures\o16_MMV1581555_3D.pdb
REMARK  3 active torsions:
REMARK  status: ('A' for Active; 'I' for Inactive)
REMARK    1  A    between atoms: N1_1  and  C1_2
REMARK    2  A    between atoms: C5_6  and  C7_8
REMARK    3  A    between atoms: N5_14  and  C10_15
REMARK                            x       y       z     vdW  Elec       q    Type
REMARK                         _______ _______ _______ _____ _____    ______ ____
ROOT
ATOM      1  C7  UNL     1     151.310 159.960 169.020  0.00  0.00    +0.000 C 
ATOM      2  N2  UNL     1     150.582 158.978 169.565  0.00  0.00    +0.000 NA
ATOM      3  C8  UNL     1     151.171 157.865 170.094  0.00  0.00    +0.000 C 
ATOM      4  N3  UNL     1     150.404 156.822 170.673  0.00  0.00    +0.000 N 
ATOM      5  N4  UNL     1     152.523 157.739 170.072  0.00  0.00    +0.000 NA
ATOM      6  C9  UNL     1     153.256 158.727 169.523  0.00  0.00    +0.000 C 
ATOM      7  N5  UNL     1     154.676 158.657 169.469  0.00  0.00    +0.000 N 
ATOM      8  N6  UNL     1     152.646 159.818 169.008  0.00  0.00    +0.000 NA
ATOM      9  H7  UNL     1     150.728 156.263 171.498  0.00  0.00    +0.000 HD
ATOM     10  H8  UNL     1     149.476 156.626 170.234  0.00  0.00    +0.000 HD
ATOM     11  H9  UNL     1     155.229 159.429 169.042  0.00  0.00    +0.000 HD
ENDROOT
BRANCH   7  12
ATOM     12  C10 UNL     1     155.388 157.508 170.009  0.00  0.00    +0.000 C 
ATOM     13  C11 UNL     1     156.604 157.980 170.781  0.00  0.00    +0.000 C 
ATOM     14  C12 UNL     1     157.594 158.168 169.648  0.00  0.00    +0.000 A 
ATOM     15  C13 UNL     1     158.759 158.925 169.602  0.00  0.00    +0.000 A 
ATOM     16  C14 UNL     1     159.489 158.936 168.443  0.00  0.00    +0.000 A 
ATOM     17  C15 UNL     1     159.121 158.229 167.320  0.00  0.00    +0.000 A 
ATOM     18  C16 UNL     1     157.971 157.482 167.367  0.00  0.00    +0.000 A 
ATOM     19  C17 UNL     1     157.211 157.459 168.545  0.00  0.00    +0.000 A 
ATOM     20  C18 UNL     1     155.931 156.724 168.843  0.00  0.00    +0.000 C 
ENDBRANCH   7  12
BRANCH   1  25
ATOM     21  C1  UNL     1     148.741 162.318 167.587  0.00  0.00    +0.000 A 
ATOM     22  C2  UNL     1     149.541 163.446 167.364  0.00  0.00    +0.000 A 
ATOM     23  C3  UNL     1     150.885 163.436 167.673  0.00  0.00    +0.000 A 
ATOM     24  C4  UNL     1     151.433 162.291 168.210  0.00  0.00    +0.000 A 
ATOM     25  C5  UNL     1     150.695 161.158 168.449  0.00  0.00    +0.000 A 
ATOM     26  C6  UNL     1     149.354 161.206 168.127  0.00  0.00    +0.000 A 
BRANCH  21  27
ATOM     27  N1  UNL     1     147.349 162.322 167.269  0.00  0.00    +0.000 N 
ATOM     28  H1  UNL     1     146.847 163.172 166.941  0.00  0.00    +0.000 HD
ATOM     29  H2  UNL     1     146.837 161.413 167.379  0.00  0.00    +0.000 HD
ENDBRANCH  21  27
ENDBRANCH   1  25
TORSDOF 3
ENDMDL
MODEL 8
REMARK VINA RESULT:      -6.2     11.046     14.006
REMARK  Name = ./3D_structures\o16_MMV1581555_3D.pdb
REMARK  3 active torsions:
REMARK  status: ('A' for Active; 'I' for Inactive)
REMARK    1  A    between atoms: N1_1  and  C1_2
REMARK    2  A    between atoms: C5_6  and  C7_8
REMARK    3  A    between atoms: N5_14  and  C10_15
REMARK                            x       y       z     vdW  Elec       q    Type
REMARK                         _______ _______ _______ _____ _____    ______ ____
ROOT
ATOM      1  C7  UNL     1     148.228 164.934 166.512  0.00  0.00    +0.000 C 
ATOM      2  N2  UNL     1     148.620 163.827 167.155  0.00  0.00    +0.000 NA
ATOM      3  C8  UNL     1     149.938 163.585 167.416  0.00  0.00    +0.000 C 
ATOM      4  N3  UNL     1     150.358 162.415 168.097  0.00  0.00    +0.000 N 
ATOM      5  N4  UNL     1     150.882 164.478 167.020  0.00  0.00    +0.000 NA
ATOM      6  C9  UNL     1     150.488 165.592 166.373  0.00  0.00    +0.000 C 
ATOM      7  N5  UNL     1     151.426 166.567 165.932  0.00  0.00    +0.000 N 
ATOM      8  N6  UNL     1     149.176 165.806 166.128  0.00  0.00    +0.000 NA
ATOM      9  H7  UNL     1     151.172 162.397 168.758  0.00  0.00    +0.000 HD
ATOM     10  H8  UNL     1     149.811 161.544 167.912  0.00  0.00    +0.000 HD
ATOM     11  H9  UNL     1     151.106 167.422 165.433  0.00  0.00    +0.000 HD
ENDROOT
BRANCH   7  12
ATOM     12  C10 UNL     1     152.851 166.391 166.168  0.00  0.00    +0.000 C 
ATOM     13  C11 UNL     1     153.285 167.257 167.334  0.00  0.00    +0.000 C 
ATOM     14  C12 UNL     1     153.478 168.587 166.634  0.00  0.00    +0.000 A 
ATOM     15  C13 UNL     1     153.504 169.874 167.158  0.00  0.00    +0.000 A 
ATOM     16  C14 UNL     1     153.692 170.928 166.304  0.00  0.00    +0.000 A 
ATOM     17  C15 UNL     1     153.858 170.771 164.946  0.00  0.00    +0.000 A 
ATOM     18  C16 UNL     1     153.833 169.499 164.429  0.00  0.00    +0.000 A 
ATOM     19  C17 UNL     1     153.641 168.409 165.288  0.00  0.00    +0.000 A 
ATOM     20  C18 UNL     1     153.580 166.939 164.968  0.00  0.00    +0.000 C 
ENDBRANCH   7  12
BRANCH   1  25
ATOM     21  C1  UNL     1     145.043 166.784 165.711  0.00  0.00    +0.000 A 
ATOM     22  C2  UNL     1     144.140 165.714 165.674  0.00  0.00    +0.000 A 
ATOM     23  C3  UNL     1     144.561 164.421 165.904  0.00  0.00    +0.000 A 
ATOM     24  C4  UNL     1     145.894 164.196 166.174  0.00  0.00    +0.000 A 
ATOM     25  C5  UNL     1     146.821 165.208 166.223  0.00  0.00    +0.000 A 
ATOM     26  C6  UNL     1     146.362 166.488 165.987  0.00  0.00    +0.000 A 
BRANCH  21  27
ATOM     27  N1  UNL     1     144.613 168.124 165.473  0.00  0.00    +0.000 N 
ATOM     28  H1  UNL     1     143.658 168.463 165.713  0.00  0.00    +0.000 HD
ATOM     29  H2  UNL     1     145.311 168.774 165.037  0.00  0.00    +0.000 HD
ENDBRANCH  21  27
ENDBRANCH   1  25
TORSDOF 3
ENDMDL
MODEL 9
REMARK VINA RESULT:      -6.1      2.407      7.815
REMARK  Name = ./3D_structures\o16_MMV1581555_3D.pdb
REMARK  3 active torsions:
REMARK  status: ('A' for Active; 'I' for Inactive)
REMARK    1  A    between atoms: N1_1  and  C1_2
REMARK    2  A    between atoms: C5_6  and  C7_8
REMARK    3  A    between atoms: N5_14  and  C10_15
REMARK                            x       y       z     vdW  Elec       q    Type
REMARK                         _______ _______ _______ _____ _____    ______ ____
ROOT
ATOM      1  C7  UNL     1     157.816 153.406 163.796  0.00  0.00    +0.000 C 
ATOM      2  N2  UNL     1     158.027 153.965 162.599  0.00  0.00    +0.000 NA
ATOM      3  C8  UNL     1     158.036 155.321 162.438  0.00  0.00    +0.000 C 
ATOM      4  N3  UNL     1     158.260 155.917 161.171  0.00  0.00    +0.000 N 
ATOM      5  N4  UNL     1     157.827 156.131 163.507  0.00  0.00    +0.000 NA
ATOM      6  C9  UNL     1     157.614 155.570 164.713  0.00  0.00    +0.000 C 
ATOM      7  N5  UNL     1     157.389 156.362 165.873  0.00  0.00    +0.000 N 
ATOM      8  N6  UNL     1     157.611 154.224 164.843  0.00  0.00    +0.000 NA
ATOM      9  H7  UNL     1     158.777 156.820 161.046  0.00  0.00    +0.000 HD
ATOM     10  H8  UNL     1     157.881 155.409 160.341  0.00  0.00    +0.000 HD
ATOM     11  H9  UNL     1     157.226 155.913 166.798  0.00  0.00    +0.000 HD
ENDROOT
BRANCH   7  12
ATOM     12  C10 UNL     1     157.381 157.815 165.794  0.00  0.00    +0.000 C 
ATOM     13  C11 UNL     1     158.626 158.367 166.460  0.00  0.00    +0.000 C 
ATOM     14  C12 UNL     1     158.190 158.359 167.912  0.00  0.00    +0.000 A 
ATOM     15  C13 UNL     1     158.956 158.380 169.071  0.00  0.00    +0.000 A 
ATOM     16  C14 UNL     1     158.316 158.361 170.282  0.00  0.00    +0.000 A 
ATOM     17  C15 UNL     1     156.945 158.322 170.403  0.00  0.00    +0.000 A 
ATOM     18  C16 UNL     1     156.190 158.302 169.257  0.00  0.00    +0.000 A 
ATOM     19  C17 UNL     1     156.827 158.320 168.009  0.00  0.00    +0.000 A 
ATOM     20  C18 UNL     1     156.228 158.308 166.629  0.00  0.00    +0.000 C 
ENDBRANCH   7  12
BRANCH   1  25
ATOM     21  C1  UNL     1     156.959 149.759 163.380  0.00  0.00    +0.000 A 
ATOM     22  C2  UNL     1     157.789 149.198 164.359  0.00  0.00    +0.000 A 
ATOM     23  C3  UNL     1     158.607 149.991 165.136  0.00  0.00    +0.000 A 
ATOM     24  C4  UNL     1     158.596 151.355 164.932  0.00  0.00    +0.000 A 
ATOM     25  C5  UNL     1     157.802 151.956 163.987  0.00  0.00    +0.000 A 
ATOM     26  C6  UNL     1     156.998 151.130 163.229  0.00  0.00    +0.000 A 
BRANCH  21  27
ATOM     27  N1  UNL     1     156.110 148.943 162.573  0.00  0.00    +0.000 N 
ATOM     28  H1  UNL     1     156.475 148.217 161.922  0.00  0.00    +0.000 HD
ATOM     29  H2  UNL     1     155.077 149.103 162.662  0.00  0.00    +0.000 HD
ENDBRANCH  21  27
ENDBRANCH   1  25
TORSDOF 3
ENDMDL
