MODEL 1
REMARK VINA RESULT:      -5.9      0.000      0.000
REMARK  Name = ./3D_structures\o17_MMV1581547_3D.pdb
REMARK  9 active torsions:
REMARK  status: ('A' for Active; 'I' for Inactive)
REMARK    1  A    between atoms: C1_1  and  C2_2
REMARK    2  A    between atoms: C2_2  and  C3_3
REMARK    3  A    between atoms: C2_2  and  C4_4
REMARK    4  A    between atoms: C2_2  and  O1_5
REMARK    5  A    between atoms: O1_5  and  C5_6
REMARK    6  A    between atoms: N1_8  and  C6_9
REMARK    7  A    between atoms: C6_9  and  C7_10
REMARK    8  A    between atoms: C10_13  and  C13_16
REMARK    9  A    between atoms: N2_18  and  C14_19
REMARK                            x       y       z     vdW  Elec       q    Type
REMARK                         _______ _______ _______ _____ _____    ______ ____
ROOT
ATOM      1  C7  UNL     1     157.314 158.443 170.473  0.00  0.00    +0.000 A 
ATOM      2  C8  UNL     1     158.299 158.541 169.518  0.00  0.00    +0.000 A 
ATOM      3  C9  UNL     1     158.208 157.922 168.282  0.00  0.00    +0.000 A 
ATOM      4  C10 UNL     1     157.095 157.173 167.973  0.00  0.00    +0.000 A 
ATOM      5  C11 UNL     1     156.107 157.058 168.895  0.00  0.00    +0.000 A 
ATOM      6  C12 UNL     1     156.201 157.676 170.125  0.00  0.00    +0.000 A 
ENDROOT
BRANCH   4   7
ATOM      7  C13 UNL     1     157.009 156.533 166.682  0.00  0.00    +0.000 C 
ATOM      8  O3  UNL     1     155.877 156.451 166.073  0.00  0.00    +0.000 OA
ATOM      9  N2  UNL     1     158.122 155.966 166.006  0.00  0.00    +0.000 N 
ATOM     10  H17 UNL     1     159.058 156.009 166.455  0.00  0.00    +0.000 HD
BRANCH   9  11
ATOM     11  C14 UNL     1     157.958 155.335 164.702  0.00  0.00    +0.000 C 
ATOM     12  C15 UNL     1     158.357 156.343 163.642  0.00  0.00    +0.000 C 
ATOM     13  C16 UNL     1     159.866 156.295 163.743  0.00  0.00    +0.000 C 
ATOM     14  O4  UNL     1     160.115 154.919 163.951  0.00  0.00    +0.000 OA
ATOM     15  C17 UNL     1     159.025 154.317 164.561  0.00  0.00    +0.000 C 
ATOM     16  O5  UNL     1     158.962 153.127 164.924  0.00  0.00    +0.000 OA
ENDBRANCH   9  11
ENDBRANCH   4   7
BRANCH   1  17
ATOM     17  C6  UNL     1     157.414 159.110 171.793  0.00  0.00    +0.000 C 
BRANCH  17  20
ATOM     18  C5  UNL     1     155.610 160.042 173.291  0.00  0.00    +0.000 C 
ATOM     19  O2  UNL     1     156.323 161.034 173.581  0.00  0.00    +0.000 OA
ATOM     20  N1  UNL     1     156.090 159.054 172.413  0.00  0.00    +0.000 N 
ATOM     21  H10 UNL     1     155.446 158.232 172.199  0.00  0.00    +0.000 HD
BRANCH  18  22
ATOM     22  O1  UNL     1     154.323 159.885 173.825  0.00  0.00    +0.000 OA
BRANCH  22  24
ATOM     23  C1  UNL     1     151.965 160.032 173.758  0.00  0.00    +0.000 C 
ATOM     24  C2  UNL     1     153.262 160.602 173.223  0.00  0.00    +0.000 C 
ATOM     25  C3  UNL     1     153.307 162.056 173.639  0.00  0.00    +0.000 C 
ATOM     26  C4  UNL     1     153.339 160.417 171.739  0.00  0.00    +0.000 C 
ENDBRANCH  22  24
ENDBRANCH  18  22
ENDBRANCH  17  20
ENDBRANCH   1  17
TORSDOF 6
ENDMDL
MODEL 2
REMARK VINA RESULT:      -5.9      5.280      6.576
REMARK  Name = ./3D_structures\o17_MMV1581547_3D.pdb
REMARK  9 active torsions:
REMARK  status: ('A' for Active; 'I' for Inactive)
REMARK    1  A    between atoms: C1_1  and  C2_2
REMARK    2  A    between atoms: C2_2  and  C3_3
REMARK    3  A    between atoms: C2_2  and  C4_4
REMARK    4  A    between atoms: C2_2  and  O1_5
REMARK    5  A    between atoms: O1_5  and  C5_6
REMARK    6  A    between atoms: N1_8  and  C6_9
REMARK    7  A    between atoms: C6_9  and  C7_10
REMARK    8  A    between atoms: C10_13  and  C13_16
REMARK    9  A    between atoms: N2_18  and  C14_19
REMARK                            x       y       z     vdW  Elec       q    Type
REMARK                         _______ _______ _______ _____ _____    ______ ____
ROOT
ATOM      1  C7  UNL     1     151.978 160.978 166.889  0.00  0.00    +0.000 A 
ATOM      2  C8  UNL     1     152.160 160.470 168.154  0.00  0.00    +0.000 A 
ATOM      3  C9  UNL     1     153.180 159.588 168.467  0.00  0.00    +0.000 A 
ATOM      4  C10 UNL     1     154.061 159.186 167.489  0.00  0.00    +0.000 A 
ATOM      5  C11 UNL     1     153.906 159.670 166.231  0.00  0.00    +0.000 A 
ATOM      6  C12 UNL     1     152.889 160.549 165.922  0.00  0.00    +0.000 A 
ENDROOT
BRANCH   4   7
ATOM      7  C13 UNL     1     155.122 158.267 167.825  0.00  0.00    +0.000 C 
ATOM      8  O3  UNL     1     154.972 157.003 167.623  0.00  0.00    +0.000 OA
ATOM      9  N2  UNL     1     156.365 158.666 168.382  0.00  0.00    +0.000 N 
ATOM     10  H17 UNL     1     156.534 159.675 168.562  0.00  0.00    +0.000 HD
BRANCH   9  11
ATOM     11  C14 UNL     1     157.391 157.679 168.697  0.00  0.00    +0.000 C 
ATOM     12  C15 UNL     1     158.315 157.568 167.501  0.00  0.00    +0.000 C 
ATOM     13  C16 UNL     1     159.141 158.827 167.648  0.00  0.00    +0.000 C 
ATOM     14  O4  UNL     1     159.331 158.906 169.046  0.00  0.00    +0.000 OA
ATOM     15  C17 UNL     1     158.290 158.277 169.712  0.00  0.00    +0.000 C 
ATOM     16  O5  UNL     1     158.143 158.227 170.948  0.00  0.00    +0.000 OA
ENDBRANCH   9  11
ENDBRANCH   4   7
BRANCH   1  17
ATOM     17  C6  UNL     1     150.886 161.926 166.559  0.00  0.00    +0.000 C 
BRANCH  17  20
ATOM     18  C5  UNL     1     148.902 162.167 168.099  0.00  0.00    +0.000 C 
ATOM     19  O2  UNL     1     148.143 161.638 167.251  0.00  0.00    +0.000 OA
ATOM     20  N1  UNL     1     150.271 162.339 167.819  0.00  0.00    +0.000 N 
ATOM     21  H10 UNL     1     150.872 162.794 168.573  0.00  0.00    +0.000 HD
BRANCH  18  22
ATOM     22  O1  UNL     1     148.421 162.600 169.343  0.00  0.00    +0.000 OA
BRANCH  22  24
ATOM     23  C1  UNL     1     148.962 164.720 170.237  0.00  0.00    +0.000 C 
ATOM     24  C2  UNL     1     147.944 163.928 169.443  0.00  0.00    +0.000 C 
ATOM     25  C3  UNL     1     147.867 164.564 168.073  0.00  0.00    +0.000 C 
ATOM     26  C4  UNL     1     146.626 163.914 170.155  0.00  0.00    +0.000 C 
ENDBRANCH  22  24
ENDBRANCH  18  22
ENDBRANCH  17  20
ENDBRANCH   1  17
TORSDOF 6
ENDMDL
MODEL 3
REMARK VINA RESULT:      -5.7      2.636      9.392
REMARK  Name = ./3D_structures\o17_MMV1581547_3D.pdb
REMARK  9 active torsions:
REMARK  status: ('A' for Active; 'I' for Inactive)
REMARK    1  A    between atoms: C1_1  and  C2_2
REMARK    2  A    between atoms: C2_2  and  C3_3
REMARK    3  A    between atoms: C2_2  and  C4_4
REMARK    4  A    between atoms: C2_2  and  O1_5
REMARK    5  A    between atoms: O1_5  and  C5_6
REMARK    6  A    between atoms: N1_8  and  C6_9
REMARK    7  A    between atoms: C6_9  and  C7_10
REMARK    8  A    between atoms: C10_13  and  C13_16
REMARK    9  A    between atoms: N2_18  and  C14_19
REMARK                            x       y       z     vdW  Elec       q    Type
REMARK                         _______ _______ _______ _____ _____    ______ ____
ROOT
ATOM      1  C7  UNL     1     157.981 156.542 165.146  0.00  0.00    +0.000 A 
ATOM      2  C8  UNL     1     159.030 157.312 165.591  0.00  0.00    +0.000 A 
ATOM      3  C9  UNL     1     159.055 157.891 166.848  0.00  0.00    +0.000 A 
ATOM      4  C10 UNL     1     157.996 157.704 167.708  0.00  0.00    +0.000 A 
ATOM      5  C11 UNL     1     156.945 156.950 167.297  0.00  0.00    +0.000 A 
ATOM      6  C12 UNL     1     156.925 156.373 166.044  0.00  0.00    +0.000 A 
ENDROOT
BRANCH   4   7
ATOM      7  C13 UNL     1     158.031 158.311 169.017  0.00  0.00    +0.000 C 
ATOM      8  O3  UNL     1     158.999 158.050 169.826  0.00  0.00    +0.000 OA
ATOM      9  N2  UNL     1     157.041 159.208 169.498  0.00  0.00    +0.000 N 
ATOM     10  H17 UNL     1     156.240 159.450 168.882  0.00  0.00    +0.000 HD
BRANCH   9  11
ATOM     11  C14 UNL     1     157.144 159.782 170.834  0.00  0.00    +0.000 C 
ATOM     12  C15 UNL     1     156.464 161.136 170.813  0.00  0.00    +0.000 C 
ATOM     13  C16 UNL     1     155.005 160.735 170.837  0.00  0.00    +0.000 C 
ATOM     14  O4  UNL     1     155.005 159.635 171.726  0.00  0.00    +0.000 OA
ATOM     15  C17 UNL     1     156.242 159.011 171.722  0.00  0.00    +0.000 C 
ATOM     16  O5  UNL     1     156.537 157.980 172.358  0.00  0.00    +0.000 OA
ENDBRANCH   9  11
ENDBRANCH   4   7
BRANCH   1  17
ATOM     17  C6  UNL     1     157.960 155.920 163.800  0.00  0.00    +0.000 C 
BRANCH  17  20
ATOM     18  C5  UNL     1     157.824 153.417 164.091  0.00  0.00    +0.000 C 
ATOM     19  O2  UNL     1     159.074 153.330 164.171  0.00  0.00    +0.000 OA
ATOM     20  N1  UNL     1     157.210 154.670 163.908  0.00  0.00    +0.000 N 
ATOM     21  H10 UNL     1     156.145 154.690 163.846  0.00  0.00    +0.000 HD
BRANCH  18  22
ATOM     22  O1  UNL     1     157.004 152.284 164.182  0.00  0.00    +0.000 OA
BRANCH  22  24
ATOM     23  C1  UNL     1     155.501 151.026 162.860  0.00  0.00    +0.000 C 
ATOM     24  C2  UNL     1     156.951 151.413 163.069  0.00  0.00    +0.000 C 
ATOM     25  C3  UNL     1     157.397 152.133 161.815  0.00  0.00    +0.000 C 
ATOM     26  C4  UNL     1     157.775 150.198 163.369  0.00  0.00    +0.000 C 
ENDBRANCH  22  24
ENDBRANCH  18  22
ENDBRANCH  17  20
ENDBRANCH   1  17
TORSDOF 6
ENDMDL
MODEL 4
REMARK VINA RESULT:      -5.7      2.927      4.563
REMARK  Name = ./3D_structures\o17_MMV1581547_3D.pdb
REMARK  9 active torsions:
REMARK  status: ('A' for Active; 'I' for Inactive)
REMARK    1  A    between atoms: C1_1  and  C2_2
REMARK    2  A    between atoms: C2_2  and  C3_3
REMARK    3  A    between atoms: C2_2  and  C4_4
REMARK    4  A    between atoms: C2_2  and  O1_5
REMARK    5  A    between atoms: O1_5  and  C5_6
REMARK    6  A    between atoms: N1_8  and  C6_9
REMARK    7  A    between atoms: C6_9  and  C7_10
REMARK    8  A    between atoms: C10_13  and  C13_16
REMARK    9  A    between atoms: N2_18  and  C14_19
REMARK                            x       y       z     vdW  Elec       q    Type
REMARK                         _______ _______ _______ _____ _____    ______ ____
ROOT
ATOM      1  C7  UNL     1     158.413 157.391 166.411  0.00  0.00    +0.000 A 
ATOM      2  C8  UNL     1     159.439 156.854 165.668  0.00  0.00    +0.000 A 
ATOM      3  C9  UNL     1     159.269 155.759 164.837  0.00  0.00    +0.000 A 
ATOM      4  C10 UNL     1     158.031 155.165 164.733  0.00  0.00    +0.000 A 
ATOM      5  C11 UNL     1     157.000 155.672 165.455  0.00  0.00    +0.000 A 
ATOM      6  C12 UNL     1     157.173 156.763 166.281  0.00  0.00    +0.000 A 
ENDROOT
BRANCH   4   7
ATOM      7  C13 UNL     1     157.863 154.026 163.864  0.00  0.00    +0.000 C 
ATOM      8  O3  UNL     1     157.667 154.197 162.602  0.00  0.00    +0.000 OA
ATOM      9  N2  UNL     1     157.901 152.679 164.311  0.00  0.00    +0.000 N 
ATOM     10  H17 UNL     1     158.058 152.489 165.321  0.00  0.00    +0.000 HD
BRANCH   9  11
ATOM     11  C14 UNL     1     157.723 151.578 163.373  0.00  0.00    +0.000 C 
ATOM     12  C15 UNL     1     158.710 150.488 163.740  0.00  0.00    +0.000 C 
ATOM     13  C16 UNL     1     158.040 149.879 164.953  0.00  0.00    +0.000 C 
ATOM     14  O4  UNL     1     156.674 149.903 164.592  0.00  0.00    +0.000 OA
ATOM     15  C17 UNL     1     156.430 150.926 163.689  0.00  0.00    +0.000 C 
ATOM     16  O5  UNL     1     155.315 151.238 163.228  0.00  0.00    +0.000 OA
ENDBRANCH   9  11
ENDBRANCH   4   7
BRANCH   1  17
ATOM     17  C6  UNL     1     158.599 158.565 167.297  0.00  0.00    +0.000 C 
BRANCH  17  20
ATOM     18  C5  UNL     1     157.834 158.294 169.686  0.00  0.00    +0.000 C 
ATOM     19  O2  UNL     1     159.017 158.139 170.077  0.00  0.00    +0.000 OA
ATOM     20  N1  UNL     1     157.559 158.508 168.323  0.00  0.00    +0.000 N 
ATOM     21  H10 UNL     1     156.538 158.633 168.042  0.00  0.00    +0.000 HD
BRANCH  18  22
ATOM     22  O1  UNL     1     156.756 158.259 170.582  0.00  0.00    +0.000 OA
BRANCH  22  24
ATOM     23  C1  UNL     1     154.957 159.785 170.435  0.00  0.00    +0.000 C 
ATOM     24  C2  UNL     1     156.285 159.488 171.100  0.00  0.00    +0.000 C 
ATOM     25  C3  UNL     1     156.013 159.364 172.584  0.00  0.00    +0.000 C 
ATOM     26  C4  UNL     1     157.280 160.560 170.776  0.00  0.00    +0.000 C 
ENDBRANCH  22  24
ENDBRANCH  18  22
ENDBRANCH  17  20
ENDBRANCH   1  17
TORSDOF 6
ENDMDL
MODEL 5
REMARK VINA RESULT:      -5.6      2.267      3.403
REMARK  Name = ./3D_structures\o17_MMV1581547_3D.pdb
REMARK  9 active torsions:
REMARK  status: ('A' for Active; 'I' for Inactive)
REMARK    1  A    between atoms: C1_1  and  C2_2
REMARK    2  A    between atoms: C2_2  and  C3_3
REMARK    3  A    between atoms: C2_2  and  C4_4
REMARK    4  A    between atoms: C2_2  and  O1_5
REMARK    5  A    between atoms: O1_5  and  C5_6
REMARK    6  A    between atoms: N1_8  and  C6_9
REMARK    7  A    between atoms: C6_9  and  C7_10
REMARK    8  A    between atoms: C10_13  and  C13_16
REMARK    9  A    between atoms: N2_18  and  C14_19
REMARK                            x       y       z     vdW  Elec       q    Type
REMARK                         _______ _______ _______ _____ _____    ______ ____
ROOT
ATOM      1  C7  UNL     1     154.350 158.079 168.126  0.00  0.00    +0.000 A 
ATOM      2  C8  UNL     1     154.385 158.219 166.758  0.00  0.00    +0.000 A 
ATOM      3  C9  UNL     1     155.377 157.655 165.973  0.00  0.00    +0.000 A 
ATOM      4  C10 UNL     1     156.380 156.919 166.562  0.00  0.00    +0.000 A 
ATOM      5  C11 UNL     1     156.371 156.764 167.910  0.00  0.00    +0.000 A 
ATOM      6  C12 UNL     1     155.382 157.327 168.689  0.00  0.00    +0.000 A 
ENDROOT
BRANCH   4   7
ATOM      7  C13 UNL     1     157.408 156.333 165.735  0.00  0.00    +0.000 C 
ATOM      8  O3  UNL     1     158.641 156.668 165.900  0.00  0.00    +0.000 OA
ATOM      9  N2  UNL     1     157.153 155.380 164.715  0.00  0.00    +0.000 N 
ATOM     10  H17 UNL     1     156.173 155.076 164.545  0.00  0.00    +0.000 HD
BRANCH   9  11
ATOM     11  C14 UNL     1     158.244 154.832 163.919  0.00  0.00    +0.000 C 
ATOM     12  C15 UNL     1     158.550 153.442 164.440  0.00  0.00    +0.000 C 
ATOM     13  C16 UNL     1     157.403 152.647 163.853  0.00  0.00    +0.000 C 
ATOM     14  O4  UNL     1     157.261 153.219 162.568  0.00  0.00    +0.000 OA
ATOM     15  C17 UNL     1     157.706 154.532 162.571  0.00  0.00    +0.000 C 
ATOM     16  O5  UNL     1     157.658 155.317 161.604  0.00  0.00    +0.000 OA
ENDBRANCH   9  11
ENDBRANCH   4   7
BRANCH   1  17
ATOM     17  C6  UNL     1     153.284 158.682 168.962  0.00  0.00    +0.000 C 
BRANCH  17  20
ATOM     18  C5  UNL     1     154.304 160.415 170.487  0.00  0.00    +0.000 C 
ATOM     19  O2  UNL     1     154.146 161.310 169.622  0.00  0.00    +0.000 OA
ATOM     20  N1  UNL     1     153.899 159.093 170.224  0.00  0.00    +0.000 N 
ATOM     21  H10 UNL     1     154.055 158.370 170.992  0.00  0.00    +0.000 HD
BRANCH  18  22
ATOM     22  O1  UNL     1     154.882 160.694 171.734  0.00  0.00    +0.000 OA
BRANCH  22  24
ATOM     23  C1  UNL     1     156.351 158.930 172.298  0.00  0.00    +0.000 C 
ATOM     24  C2  UNL     1     156.252 160.392 171.912  0.00  0.00    +0.000 C 
ATOM     25  C3  UNL     1     157.000 160.551 170.606  0.00  0.00    +0.000 C 
ATOM     26  C4  UNL     1     156.798 161.256 173.007  0.00  0.00    +0.000 C 
ENDBRANCH  22  24
ENDBRANCH  18  22
ENDBRANCH  17  20
ENDBRANCH   1  17
TORSDOF 6
ENDMDL
MODEL 6
REMARK VINA RESULT:      -5.5      6.085      9.602
REMARK  Name = ./3D_structures\o17_MMV1581547_3D.pdb
REMARK  9 active torsions:
REMARK  status: ('A' for Active; 'I' for Inactive)
REMARK    1  A    between atoms: C1_1  and  C2_2
REMARK    2  A    between atoms: C2_2  and  C3_3
REMARK    3  A    between atoms: C2_2  and  C4_4
REMARK    4  A    between atoms: C2_2  and  O1_5
REMARK    5  A    between atoms: O1_5  and  C5_6
REMARK    6  A    between atoms: N1_8  and  C6_9
REMARK    7  A    between atoms: C6_9  and  C7_10
REMARK    8  A    between atoms: C10_13  and  C13_16
REMARK    9  A    between atoms: N2_18  and  C14_19
REMARK                            x       y       z     vdW  Elec       q    Type
REMARK                         _______ _______ _______ _____ _____    ______ ____
ROOT
ATOM      1  C7  UNL     1     153.488 160.007 166.349  0.00  0.00    +0.000 A 
ATOM      2  C8  UNL     1     152.618 160.736 165.572  0.00  0.00    +0.000 A 
ATOM      3  C9  UNL     1     151.481 161.338 166.084  0.00  0.00    +0.000 A 
ATOM      4  C10 UNL     1     151.186 161.216 167.424  0.00  0.00    +0.000 A 
ATOM      5  C11 UNL     1     152.026 160.502 168.215  0.00  0.00    +0.000 A 
ATOM      6  C12 UNL     1     153.158 159.904 167.702  0.00  0.00    +0.000 A 
ENDROOT
BRANCH   4   7
ATOM      7  C13 UNL     1     150.000 161.848 167.948  0.00  0.00    +0.000 C 
ATOM      8  O3  UNL     1     149.449 161.401 169.024  0.00  0.00    +0.000 OA
ATOM      9  N2  UNL     1     149.369 162.968 167.345  0.00  0.00    +0.000 N 
ATOM     10  H17 UNL     1     149.777 163.366 166.475  0.00  0.00    +0.000 HD
BRANCH   9  11
ATOM     11  C14 UNL     1     148.171 163.553 167.933  0.00  0.00    +0.000 C 
ATOM     12  C15 UNL     1     148.426 165.034 168.136  0.00  0.00    +0.000 C 
ATOM     13  C16 UNL     1     148.279 165.555 166.723  0.00  0.00    +0.000 C 
ATOM     14  O4  UNL     1     147.198 164.791 166.226  0.00  0.00    +0.000 OA
ATOM     15  C17 UNL     1     147.123 163.574 166.885  0.00  0.00    +0.000 C 
ATOM     16  O5  UNL     1     146.314 162.660 166.634  0.00  0.00    +0.000 OA
ENDBRANCH   9  11
ENDBRANCH   4   7
BRANCH   1  17
ATOM     17  C6  UNL     1     154.707 159.367 165.797  0.00  0.00    +0.000 C 
BRANCH  17  20
ATOM     18  C5  UNL     1     156.653 158.846 167.315  0.00  0.00    +0.000 C 
ATOM     19  O2  UNL     1     157.355 159.731 166.767  0.00  0.00    +0.000 OA
ATOM     20  N1  UNL     1     155.334 158.615 166.882  0.00  0.00    +0.000 N 
ATOM     21  H10 UNL     1     154.781 157.851 167.380  0.00  0.00    +0.000 HD
BRANCH  18  22
ATOM     22  O1  UNL     1     157.152 158.063 168.367  0.00  0.00    +0.000 OA
BRANCH  22  24
ATOM     23  C1  UNL     1     158.055 158.420 170.522  0.00  0.00    +0.000 C 
ATOM     24  C2  UNL     1     156.790 158.420 169.688  0.00  0.00    +0.000 C 
ATOM     25  C3  UNL     1     156.243 159.830 169.721  0.00  0.00    +0.000 C 
ATOM     26  C4  UNL     1     155.822 157.405 170.212  0.00  0.00    +0.000 C 
ENDBRANCH  22  24
ENDBRANCH  18  22
ENDBRANCH  17  20
ENDBRANCH   1  17
TORSDOF 6
ENDMDL
MODEL 7
REMARK VINA RESULT:      -5.5      5.730      9.731
REMARK  Name = ./3D_structures\o17_MMV1581547_3D.pdb
REMARK  9 active torsions:
REMARK  status: ('A' for Active; 'I' for Inactive)
REMARK    1  A    between atoms: C1_1  and  C2_2
REMARK    2  A    between atoms: C2_2  and  C3_3
REMARK    3  A    between atoms: C2_2  and  C4_4
REMARK    4  A    between atoms: C2_2  and  O1_5
REMARK    5  A    between atoms: O1_5  and  C5_6
REMARK    6  A    between atoms: N1_8  and  C6_9
REMARK    7  A    between atoms: C6_9  and  C7_10
REMARK    8  A    between atoms: C10_13  and  C13_16
REMARK    9  A    between atoms: N2_18  and  C14_19
REMARK                            x       y       z     vdW  Elec       q    Type
REMARK                         _______ _______ _______ _____ _____    ______ ____
ROOT
ATOM      1  C7  UNL     1     153.394 160.006 166.385  0.00  0.00    +0.000 A 
ATOM      2  C8  UNL     1     152.707 160.624 165.366  0.00  0.00    +0.000 A 
ATOM      3  C9  UNL     1     151.750 161.599 165.591  0.00  0.00    +0.000 A 
ATOM      4  C10 UNL     1     151.456 161.983 166.880  0.00  0.00    +0.000 A 
ATOM      5  C11 UNL     1     152.118 161.391 167.906  0.00  0.00    +0.000 A 
ATOM      6  C12 UNL     1     153.070 160.421 167.678  0.00  0.00    +0.000 A 
ENDROOT
BRANCH   4   7
ATOM      7  C13 UNL     1     150.458 163.002 167.105  0.00  0.00    +0.000 C 
ATOM      8  O3  UNL     1     150.486 164.097 166.428  0.00  0.00    +0.000 OA
ATOM      9  N2  UNL     1     149.408 162.882 168.053  0.00  0.00    +0.000 N 
ATOM     10  H17 UNL     1     149.341 162.015 168.623  0.00  0.00    +0.000 HD
BRANCH   9  11
ATOM     11  C14 UNL     1     148.435 163.954 168.225  0.00  0.00    +0.000 C 
ATOM     12  C15 UNL     1     147.140 163.519 167.568  0.00  0.00    +0.000 C 
ATOM     13  C16 UNL     1     146.603 162.542 168.592  0.00  0.00    +0.000 C 
ATOM     14  O4  UNL     1     146.937 163.167 169.815  0.00  0.00    +0.000 OA
ATOM     15  C17 UNL     1     148.048 163.980 169.655  0.00  0.00    +0.000 C 
ATOM     16  O5  UNL     1     148.617 164.619 170.561  0.00  0.00    +0.000 OA
ENDBRANCH   9  11
ENDBRANCH   4   7
BRANCH   1  17
ATOM     17  C6  UNL     1     154.421 158.965 166.138  0.00  0.00    +0.000 C 
BRANCH  17  20
ATOM     18  C5  UNL     1     156.166 158.134 167.761  0.00  0.00    +0.000 C 
ATOM     19  O2  UNL     1     157.077 158.310 166.915  0.00  0.00    +0.000 OA
ATOM     20  N1  UNL     1     154.830 158.438 167.439  0.00  0.00    +0.000 N 
ATOM     21  H10 UNL     1     154.094 158.269 168.192  0.00  0.00    +0.000 HD
BRANCH  18  22
ATOM     22  O1  UNL     1     156.442 157.634 169.042  0.00  0.00    +0.000 OA
BRANCH  22  24
ATOM     23  C1  UNL     1     156.497 158.047 171.368  0.00  0.00    +0.000 C 
ATOM     24  C2  UNL     1     156.953 158.532 170.007  0.00  0.00    +0.000 C 
ATOM     25  C3  UNL     1     158.466 158.494 170.013  0.00  0.00    +0.000 C 
ATOM     26  C4  UNL     1     156.405 159.899 169.732  0.00  0.00    +0.000 C 
ENDBRANCH  22  24
ENDBRANCH  18  22
ENDBRANCH  17  20
ENDBRANCH   1  17
TORSDOF 6
ENDMDL
MODEL 8
REMARK VINA RESULT:      -5.5      6.491      7.147
REMARK  Name = ./3D_structures\o17_MMV1581547_3D.pdb
REMARK  9 active torsions:
REMARK  status: ('A' for Active; 'I' for Inactive)
REMARK    1  A    between atoms: C1_1  and  C2_2
REMARK    2  A    between atoms: C2_2  and  C3_3
REMARK    3  A    between atoms: C2_2  and  C4_4
REMARK    4  A    between atoms: C2_2  and  O1_5
REMARK    5  A    between atoms: O1_5  and  C5_6
REMARK    6  A    between atoms: N1_8  and  C6_9
REMARK    7  A    between atoms: C6_9  and  C7_10
REMARK    8  A    between atoms: C10_13  and  C13_16
REMARK    9  A    between atoms: N2_18  and  C14_19
REMARK                            x       y       z     vdW  Elec       q    Type
REMARK                         _______ _______ _______ _____ _____    ______ ____
ROOT
ATOM      1  C7  UNL     1     153.501 162.751 164.490  0.00  0.00    +0.000 A 
ATOM      2  C8  UNL     1     154.818 162.397 164.666  0.00  0.00    +0.000 A 
ATOM      3  C9  UNL     1     155.202 161.184 165.214  0.00  0.00    +0.000 A 
ATOM      4  C10 UNL     1     154.242 160.278 165.607  0.00  0.00    +0.000 A 
ATOM      5  C11 UNL     1     152.934 160.599 165.446  0.00  0.00    +0.000 A 
ATOM      6  C12 UNL     1     152.556 161.808 164.899  0.00  0.00    +0.000 A 
ENDROOT
BRANCH   4   7
ATOM      7  C13 UNL     1     154.651 159.016 166.175  0.00  0.00    +0.000 C 
ATOM      8  O3  UNL     1     153.958 158.474 167.116  0.00  0.00    +0.000 OA
ATOM      9  N2  UNL     1     155.804 158.299 165.759  0.00  0.00    +0.000 N 
ATOM     10  H17 UNL     1     156.395 158.695 165.001  0.00  0.00    +0.000 HD
BRANCH   9  11
ATOM     11  C14 UNL     1     156.155 157.028 166.381  0.00  0.00    +0.000 C 
ATOM     12  C15 UNL     1     156.789 156.149 165.322  0.00  0.00    +0.000 C 
ATOM     13  C16 UNL     1     158.172 156.757 165.222  0.00  0.00    +0.000 C 
ATOM     14  O4  UNL     1     158.469 157.062 166.570  0.00  0.00    +0.000 OA
ATOM     15  C17 UNL     1     157.302 157.276 167.286  0.00  0.00    +0.000 C 
ATOM     16  O5  UNL     1     157.237 157.618 168.483  0.00  0.00    +0.000 OA
ENDBRANCH   9  11
ENDBRANCH   4   7
BRANCH   1  17
ATOM     17  C6  UNL     1     153.095 164.049 163.899  0.00  0.00    +0.000 C 
BRANCH  17  20
ATOM     18  C5  UNL     1     151.369 165.430 165.117  0.00  0.00    +0.000 C 
ATOM     19  O2  UNL     1     152.244 166.253 165.481  0.00  0.00    +0.000 OA
ATOM     20  N1  UNL     1     151.724 164.317 164.333  0.00  0.00    +0.000 N 
ATOM     21  H10 UNL     1     150.944 163.647 164.050  0.00  0.00    +0.000 HD
BRANCH  18  22
ATOM     22  O1  UNL     1     150.022 165.587 165.473  0.00  0.00    +0.000 OA
BRANCH  22  24
ATOM     23  C1  UNL     1     148.134 164.850 166.689  0.00  0.00    +0.000 C 
ATOM     24  C2  UNL     1     149.619 165.142 166.754  0.00  0.00    +0.000 C 
ATOM     25  C3  UNL     1     150.308 163.840 167.100  0.00  0.00    +0.000 C 
ATOM     26  C4  UNL     1     149.891 166.229 167.748  0.00  0.00    +0.000 C 
ENDBRANCH  22  24
ENDBRANCH  18  22
ENDBRANCH  17  20
ENDBRANCH   1  17
TORSDOF 6
ENDMDL
MODEL 9
REMARK VINA RESULT:      -5.4      6.961      9.244
REMARK  Name = ./3D_structures\o17_MMV1581547_3D.pdb
REMARK  9 active torsions:
REMARK  status: ('A' for Active; 'I' for Inactive)
REMARK    1  A    between atoms: C1_1  and  C2_2
REMARK    2  A    between atoms: C2_2  and  C3_3
REMARK    3  A    between atoms: C2_2  and  C4_4
REMARK    4  A    between atoms: C2_2  and  O1_5
REMARK    5  A    between atoms: O1_5  and  C5_6
REMARK    6  A    between atoms: N1_8  and  C6_9
REMARK    7  A    between atoms: C6_9  and  C7_10
REMARK    8  A    between atoms: C10_13  and  C13_16
REMARK    9  A    between atoms: N2_18  and  C14_19
REMARK                            x       y       z     vdW  Elec       q    Type
REMARK                         _______ _______ _______ _____ _____    ______ ____
ROOT
ATOM      1  C7  UNL     1     148.520 155.241 171.330  0.00  0.00    +0.000 A 
ATOM      2  C8  UNL     1     149.841 154.858 171.345  0.00  0.00    +0.000 A 
ATOM      3  C9  UNL     1     150.863 155.675 170.891  0.00  0.00    +0.000 A 
ATOM      4  C10 UNL     1     150.569 156.927 170.398  0.00  0.00    +0.000 A 
ATOM      5  C11 UNL     1     149.275 157.332 170.370  0.00  0.00    +0.000 A 
ATOM      6  C12 UNL     1     148.260 156.516 170.824  0.00  0.00    +0.000 A 
ENDROOT
BRANCH   4   7
ATOM      7  C13 UNL     1     151.641 157.772 169.928  0.00  0.00    +0.000 C 
ATOM      8  O3  UNL     1     151.434 159.026 169.720  0.00  0.00    +0.000 OA
ATOM      9  N2  UNL     1     152.957 157.306 169.669  0.00  0.00    +0.000 N 
ATOM     10  H17 UNL     1     153.175 156.302 169.824  0.00  0.00    +0.000 HD
BRANCH   9  11
ATOM     11  C14 UNL     1     153.990 158.220 169.195  0.00  0.00    +0.000 C 
ATOM     12  C15 UNL     1     154.932 158.500 170.349  0.00  0.00    +0.000 C 
ATOM     13  C16 UNL     1     155.741 157.221 170.386  0.00  0.00    +0.000 C 
ATOM     14  O4  UNL     1     155.910 156.927 169.014  0.00  0.00    +0.000 OA
ATOM     15  C17 UNL     1     154.868 157.462 168.273  0.00  0.00    +0.000 C 
ATOM     16  O5  UNL     1     154.704 157.324 167.045  0.00  0.00    +0.000 OA
ENDBRANCH   9  11
ENDBRANCH   4   7
BRANCH   1  17
ATOM     17  C6  UNL     1     147.429 154.364 171.821  0.00  0.00    +0.000 C 
BRANCH  17  20
ATOM     18  C5  UNL     1     147.415 152.218 170.495  0.00  0.00    +0.000 C 
ATOM     19  O2  UNL     1     148.214 151.682 171.300  0.00  0.00    +0.000 OA
ATOM     20  N1  UNL     1     146.988 153.544 170.694  0.00  0.00    +0.000 N 
ATOM     21  H10 UNL     1     146.310 153.953 169.981  0.00  0.00    +0.000 HD
BRANCH  18  22
ATOM     22  O1  UNL     1     146.925 151.525 169.378  0.00  0.00    +0.000 OA
BRANCH  22  24
ATOM     23  C1  UNL     1     146.818 152.937 167.486  0.00  0.00    +0.000 C 
ATOM     24  C2  UNL     1     147.537 151.768 168.126  0.00  0.00    +0.000 C 
ATOM     25  C3  UNL     1     148.977 152.191 168.317  0.00  0.00    +0.000 C 
ATOM     26  C4  UNL     1     147.396 150.542 167.276  0.00  0.00    +0.000 C 
ENDBRANCH  22  24
ENDBRANCH  18  22
ENDBRANCH  17  20
ENDBRANCH   1  17
TORSDOF 6
ENDMDL
