MODEL 1
REMARK VINA RESULT:      -5.7      0.000      0.000
REMARK  Name = ./3D_structures\o24_MMV1578842_3D.pdb
REMARK  12 active torsions:
REMARK  status: ('A' for Active; 'I' for Inactive)
REMARK    1  A    between atoms: C1_1  and  C2_2
REMARK    2  A    between atoms: C2_2  and  C3_3
REMARK    3  A    between atoms: C3_3  and  C4_4
REMARK    4  A    between atoms: C4_4  and  O1_5
REMARK    5  A    between atoms: O1_5  and  C5_6
REMARK    6  A    between atoms: N1_8  and  C6_9
REMARK    7  A    between atoms: C11_14  and  N2_15
REMARK    8  A    between atoms: N2_15  and  C12_16
REMARK    9  A    between atoms: N2_15  and  C14_18
REMARK   10  A    between atoms: C12_16  and  C13_17
REMARK   11  A    between atoms: C14_18  and  C15_19
REMARK   12  A    between atoms: C16_21  and  C17_23
REMARK                            x       y       z     vdW  Elec       q    Type
REMARK                         _______ _______ _______ _____ _____    ______ ____
ROOT
ATOM      1  C6  UNL     1     156.418 158.558 168.856  0.00  0.00    +0.000 A 
ATOM      2  C7  UNL     1     157.577 158.099 168.249  0.00  0.00    +0.000 A 
ATOM      3  C8  UNL     1     157.546 157.311 167.091  0.00  0.00    +0.000 A 
ATOM      4  C9  UNL     1     156.330 156.980 166.539  0.00  0.00    +0.000 A 
ATOM      5  C10 UNL     1     155.155 157.411 167.102  0.00  0.00    +0.000 A 
ATOM      6  C11 UNL     1     155.235 158.198 168.258  0.00  0.00    +0.000 A 
ATOM      7  N3  UNL     1     156.545 156.225 165.445  0.00  0.00    +0.000 N 
ATOM      8  C16 UNL     1     157.876 156.091 165.323  0.00  0.00    +0.000 A 
ATOM      9  N4  UNL     1     158.493 156.747 166.319  0.00  0.00    +0.000 NA
ATOM     10  H23 UNL     1     155.789 155.840 164.839  0.00  0.00    +0.000 HD
ENDROOT
BRANCH   8  11
ATOM     11  C17 UNL     1     158.489 155.300 164.202  0.00  0.00    +0.000 C 
ATOM     12  C18 UNL     1     158.774 153.891 164.714  0.00  0.00    +0.000 C 
ATOM     13  C19 UNL     1     158.504 152.849 163.668  0.00  0.00    +0.000 C 
ATOM     14  C20 UNL     1     158.922 153.357 162.313  0.00  0.00    +0.000 C 
ATOM     15  C21 UNL     1     158.038 154.492 161.908  0.00  0.00    +0.000 C 
ATOM     16  C22 UNL     1     157.505 155.255 163.073  0.00  0.00    +0.000 C 
ENDBRANCH   8  11
BRANCH   1  19
ATOM     17  C5  UNL     1     156.484 158.810 171.374  0.00  0.00    +0.000 C 
ATOM     18  O2  UNL     1     156.497 157.601 171.591  0.00  0.00    +0.000 OA
ATOM     19  N1  UNL     1     156.447 159.296 170.065  0.00  0.00    +0.000 N 
ATOM     20  H10 UNL     1     156.412 160.352 169.975  0.00  0.00    +0.000 HD
BRANCH  17  21
ATOM     21  O1  UNL     1     156.506 159.661 172.493  0.00  0.00    +0.000 OA
BRANCH  21  22
ATOM     22  C4  UNL     1     155.433 159.746 173.397  0.00  0.00    +0.000 C 
BRANCH  22  23
ATOM     23  C3  UNL     1     154.170 160.231 172.776  0.00  0.00    +0.000 C 
BRANCH  23  25
ATOM     24  C1  UNL     1     151.890 159.924 173.672  0.00  0.00    +0.000 C 
ATOM     25  C2  UNL     1     153.210 160.635 173.894  0.00  0.00    +0.000 C 
ENDBRANCH  23  25
ENDBRANCH  22  23
ENDBRANCH  21  22
ENDBRANCH  17  21
ENDBRANCH   1  19
BRANCH   6  26
ATOM     26  N2  UNL     1     154.005 158.694 168.790  0.00  0.00    +0.000 N 
BRANCH  26  27
ATOM     27  C12 UNL     1     153.573 160.025 168.462  0.00  0.00    +0.000 C 
ATOM     28  C13 UNL     1     153.197 160.261 167.032  0.00  0.00    +0.000 C 
ENDBRANCH  26  27
BRANCH  26  29
ATOM     29  C14 UNL     1     153.191 157.866 169.625  0.00  0.00    +0.000 C 
ATOM     30  C15 UNL     1     151.887 158.521 170.017  0.00  0.00    +0.000 C 
ENDBRANCH  26  29
ENDBRANCH   6  26
TORSDOF 9
ENDMDL
MODEL 2
REMARK VINA RESULT:      -5.4      6.205      9.552
REMARK  Name = ./3D_structures\o24_MMV1578842_3D.pdb
REMARK  12 active torsions:
REMARK  status: ('A' for Active; 'I' for Inactive)
REMARK    1  A    between atoms: C1_1  and  C2_2
REMARK    2  A    between atoms: C2_2  and  C3_3
REMARK    3  A    between atoms: C3_3  and  C4_4
REMARK    4  A    between atoms: C4_4  and  O1_5
REMARK    5  A    between atoms: O1_5  and  C5_6
REMARK    6  A    between atoms: N1_8  and  C6_9
REMARK    7  A    between atoms: C11_14  and  N2_15
REMARK    8  A    between atoms: N2_15  and  C12_16
REMARK    9  A    between atoms: N2_15  and  C14_18
REMARK   10  A    between atoms: C12_16  and  C13_17
REMARK   11  A    between atoms: C14_18  and  C15_19
REMARK   12  A    between atoms: C16_21  and  C17_23
REMARK                            x       y       z     vdW  Elec       q    Type
REMARK                         _______ _______ _______ _____ _____    ______ ____
ROOT
ATOM      1  C6  UNL     1     149.396 162.167 168.382  0.00  0.00    +0.000 A 
ATOM      2  C7  UNL     1     150.093 160.974 168.497  0.00  0.00    +0.000 A 
ATOM      3  C8  UNL     1     151.168 160.825 169.383  0.00  0.00    +0.000 A 
ATOM      4  C9  UNL     1     151.547 161.893 170.162  0.00  0.00    +0.000 A 
ATOM      5  C10 UNL     1     150.888 163.095 170.085  0.00  0.00    +0.000 A 
ATOM      6  C11 UNL     1     149.818 163.198 169.187  0.00  0.00    +0.000 A 
ATOM      7  N3  UNL     1     152.590 161.522 170.926  0.00  0.00    +0.000 N 
ATOM      8  C16 UNL     1     152.854 160.240 170.623  0.00  0.00    +0.000 A 
ATOM      9  N4  UNL     1     151.995 159.808 169.686  0.00  0.00    +0.000 NA
ATOM     10  H23 UNL     1     153.071 162.145 171.610  0.00  0.00    +0.000 HD
ENDROOT
BRANCH   8  11
ATOM     11  C17 UNL     1     153.970 159.485 171.288  0.00  0.00    +0.000 C 
ATOM     12  C18 UNL     1     154.715 158.695 170.217  0.00  0.00    +0.000 C 
ATOM     13  C19 UNL     1     156.196 158.674 170.463  0.00  0.00    +0.000 C 
ATOM     14  C20 UNL     1     156.473 158.566 171.939  0.00  0.00    +0.000 C 
ATOM     15  C21 UNL     1     156.025 159.815 172.627  0.00  0.00    +0.000 C 
ATOM     16  C22 UNL     1     154.886 160.482 171.931  0.00  0.00    +0.000 C 
ENDBRANCH   8  11
BRANCH   1  19
ATOM     17  C5  UNL     1     147.000 162.035 167.579  0.00  0.00    +0.000 C 
ATOM     18  O2  UNL     1     146.573 161.555 168.627  0.00  0.00    +0.000 OA
ATOM     19  N1  UNL     1     148.355 162.340 167.437  0.00  0.00    +0.000 N 
ATOM     20  H10 UNL     1     148.635 162.727 166.490  0.00  0.00    +0.000 HD
BRANCH  17  21
ATOM     21  O1  UNL     1     146.066 162.256 166.551  0.00  0.00    +0.000 OA
BRANCH  21  22
ATOM     22  C4  UNL     1     145.286 163.425 166.480  0.00  0.00    +0.000 C 
BRANCH  22  23
ATOM     23  C3  UNL     1     145.685 164.338 165.374  0.00  0.00    +0.000 C 
BRANCH  23  25
ATOM     24  C1  UNL     1     145.657 166.792 165.639  0.00  0.00    +0.000 C 
ATOM     25  C2  UNL     1     146.424 165.530 165.979  0.00  0.00    +0.000 C 
ENDBRANCH  23  25
ENDBRANCH  22  23
ENDBRANCH  21  22
ENDBRANCH  17  21
ENDBRANCH   1  19
BRANCH   6  26
ATOM     26  N2  UNL     1     149.102 164.433 169.170  0.00  0.00    +0.000 N 
BRANCH  26  27
ATOM     27  C12 UNL     1     149.365 165.395 168.134  0.00  0.00    +0.000 C 
ATOM     28  C13 UNL     1     150.238 166.551 168.514  0.00  0.00    +0.000 C 
ENDBRANCH  26  27
BRANCH  26  29
ATOM     29  C14 UNL     1     148.109 164.708 170.161  0.00  0.00    +0.000 C 
ATOM     30  C15 UNL     1     146.781 165.123 169.570  0.00  0.00    +0.000 C 
ENDBRANCH  26  29
ENDBRANCH   6  26
TORSDOF 9
ENDMDL
MODEL 3
REMARK VINA RESULT:      -5.4      1.033      1.670
REMARK  Name = ./3D_structures\o24_MMV1578842_3D.pdb
REMARK  12 active torsions:
REMARK  status: ('A' for Active; 'I' for Inactive)
REMARK    1  A    between atoms: C1_1  and  C2_2
REMARK    2  A    between atoms: C2_2  and  C3_3
REMARK    3  A    between atoms: C3_3  and  C4_4
REMARK    4  A    between atoms: C4_4  and  O1_5
REMARK    5  A    between atoms: O1_5  and  C5_6
REMARK    6  A    between atoms: N1_8  and  C6_9
REMARK    7  A    between atoms: C11_14  and  N2_15
REMARK    8  A    between atoms: N2_15  and  C12_16
REMARK    9  A    between atoms: N2_15  and  C14_18
REMARK   10  A    between atoms: C12_16  and  C13_17
REMARK   11  A    between atoms: C14_18  and  C15_19
REMARK   12  A    between atoms: C16_21  and  C17_23
REMARK                            x       y       z     vdW  Elec       q    Type
REMARK                         _______ _______ _______ _____ _____    ______ ____
ROOT
ATOM      1  C6  UNL     1     156.887 158.535 168.079  0.00  0.00    +0.000 A 
ATOM      2  C7  UNL     1     157.992 157.884 167.552  0.00  0.00    +0.000 A 
ATOM      3  C8  UNL     1     157.880 156.965 166.501  0.00  0.00    +0.000 A 
ATOM      4  C9  UNL     1     156.637 156.697 165.975  0.00  0.00    +0.000 A 
ATOM      5  C10 UNL     1     155.513 157.315 166.462  0.00  0.00    +0.000 A 
ATOM      6  C11 UNL     1     155.673 158.229 167.512  0.00  0.00    +0.000 A 
ATOM      7  N3  UNL     1     156.773 155.793 164.988  0.00  0.00    +0.000 N 
ATOM      8  C16 UNL     1     158.083 155.505 164.904  0.00  0.00    +0.000 A 
ATOM      9  N4  UNL     1     158.764 156.213 165.820  0.00  0.00    +0.000 NA
ATOM     10  H23 UNL     1     155.982 155.416 164.422  0.00  0.00    +0.000 HD
ENDROOT
BRANCH   8  11
ATOM     11  C17 UNL     1     158.612 154.520 163.900  0.00  0.00    +0.000 C 
ATOM     12  C18 UNL     1     158.767 153.170 164.594  0.00  0.00    +0.000 C 
ATOM     13  C19 UNL     1     158.394 152.030 163.693  0.00  0.00    +0.000 C 
ATOM     14  C20 UNL     1     158.848 152.313 162.285  0.00  0.00    +0.000 C 
ATOM     15  C21 UNL     1     158.070 153.463 161.730  0.00  0.00    +0.000 C 
ATOM     16  C22 UNL     1     157.619 154.419 162.782  0.00  0.00    +0.000 C 
ENDBRANCH   8  11
BRANCH   1  19
ATOM     17  C5  UNL     1     157.184 159.086 170.532  0.00  0.00    +0.000 C 
ATOM     18  O2  UNL     1     157.291 157.913 170.882  0.00  0.00    +0.000 OA
ATOM     19  N1  UNL     1     156.990 159.412 169.188  0.00  0.00    +0.000 N 
ATOM     20  H10 UNL     1     156.885 160.447 168.982  0.00  0.00    +0.000 HD
BRANCH  17  21
ATOM     21  O1  UNL     1     157.267 160.064 171.539  0.00  0.00    +0.000 OA
BRANCH  21  22
ATOM     22  C4  UNL     1     156.126 160.607 172.157  0.00  0.00    +0.000 C 
BRANCH  22  23
ATOM     23  C3  UNL     1     155.636 159.802 173.310  0.00  0.00    +0.000 C 
BRANCH  23  25
ATOM     24  C1  UNL     1     154.336 161.807 173.925  0.00  0.00    +0.000 C 
ATOM     25  C2  UNL     1     154.249 160.312 173.696  0.00  0.00    +0.000 C 
ENDBRANCH  23  25
ENDBRANCH  22  23
ENDBRANCH  21  22
ENDBRANCH  17  21
ENDBRANCH   1  19
BRANCH   6  26
ATOM     26  N2  UNL     1     154.502 158.914 167.960  0.00  0.00    +0.000 N 
BRANCH  26  27
ATOM     27  C12 UNL     1     153.626 158.282 168.909  0.00  0.00    +0.000 C 
ATOM     28  C13 UNL     1     153.460 158.985 170.221  0.00  0.00    +0.000 C 
ENDBRANCH  26  27
BRANCH  26  29
ATOM     29  C14 UNL     1     154.210 160.232 167.490  0.00  0.00    +0.000 C 
ATOM     30  C15 UNL     1     153.298 160.243 166.285  0.00  0.00    +0.000 C 
ENDBRANCH  26  29
ENDBRANCH   6  26
TORSDOF 9
ENDMDL
MODEL 4
REMARK VINA RESULT:      -5.3      1.791      3.225
REMARK  Name = ./3D_structures\o24_MMV1578842_3D.pdb
REMARK  12 active torsions:
REMARK  status: ('A' for Active; 'I' for Inactive)
REMARK    1  A    between atoms: C1_1  and  C2_2
REMARK    2  A    between atoms: C2_2  and  C3_3
REMARK    3  A    between atoms: C3_3  and  C4_4
REMARK    4  A    between atoms: C4_4  and  O1_5
REMARK    5  A    between atoms: O1_5  and  C5_6
REMARK    6  A    between atoms: N1_8  and  C6_9
REMARK    7  A    between atoms: C11_14  and  N2_15
REMARK    8  A    between atoms: N2_15  and  C12_16
REMARK    9  A    between atoms: N2_15  and  C14_18
REMARK   10  A    between atoms: C12_16  and  C13_17
REMARK   11  A    between atoms: C14_18  and  C15_19
REMARK   12  A    between atoms: C16_21  and  C17_23
REMARK                            x       y       z     vdW  Elec       q    Type
REMARK                         _______ _______ _______ _____ _____    ______ ____
ROOT
ATOM      1  C6  UNL     1     155.661 158.195 168.405  0.00  0.00    +0.000 A 
ATOM      2  C7  UNL     1     155.400 157.372 167.319  0.00  0.00    +0.000 A 
ATOM      3  C8  UNL     1     156.427 156.846 166.524  0.00  0.00    +0.000 A 
ATOM      4  C9  UNL     1     157.733 157.155 166.825  0.00  0.00    +0.000 A 
ATOM      5  C10 UNL     1     158.042 157.964 167.890  0.00  0.00    +0.000 A 
ATOM      6  C11 UNL     1     156.984 158.466 168.658  0.00  0.00    +0.000 A 
ATOM      7  N3  UNL     1     158.536 156.545 165.935  0.00  0.00    +0.000 N 
ATOM      8  C16 UNL     1     157.737 155.869 165.092  0.00  0.00    +0.000 A 
ATOM      9  N4  UNL     1     156.453 156.046 165.443  0.00  0.00    +0.000 NA
ATOM     10  H23 UNL     1     159.577 156.614 165.937  0.00  0.00    +0.000 HD
ENDROOT
BRANCH   8  11
ATOM     11  C17 UNL     1     158.294 155.061 163.954  0.00  0.00    +0.000 C 
ATOM     12  C18 UNL     1     157.700 153.658 164.031  0.00  0.00    +0.000 C 
ATOM     13  C19 UNL     1     157.399 153.101 162.670  0.00  0.00    +0.000 C 
ATOM     14  C20 UNL     1     158.470 153.513 161.694  0.00  0.00    +0.000 C 
ATOM     15  C21 UNL     1     158.414 154.992 161.484  0.00  0.00    +0.000 C 
ATOM     16  C22 UNL     1     157.893 155.727 162.673  0.00  0.00    +0.000 C 
ENDBRANCH   8  11
BRANCH   1  19
ATOM     17  C5  UNL     1     153.912 159.956 168.900  0.00  0.00    +0.000 C 
ATOM     18  O2  UNL     1     154.157 160.621 167.897  0.00  0.00    +0.000 OA
ATOM     19  N1  UNL     1     154.621 158.783 169.167  0.00  0.00    +0.000 N 
ATOM     20  H10 UNL     1     154.358 158.289 170.067  0.00  0.00    +0.000 HD
BRANCH  17  21
ATOM     21  O1  UNL     1     152.897 160.431 169.750  0.00  0.00    +0.000 OA
BRANCH  21  22
ATOM     22  C4  UNL     1     152.614 159.835 170.992  0.00  0.00    +0.000 C 
BRANCH  22  23
ATOM     23  C3  UNL     1     151.162 159.598 171.220  0.00  0.00    +0.000 C 
BRANCH  23  25
ATOM     24  C1  UNL     1     151.251 157.319 170.277  0.00  0.00    +0.000 C 
ATOM     25  C2  UNL     1     150.643 158.696 170.102  0.00  0.00    +0.000 C 
ENDBRANCH  23  25
ENDBRANCH  22  23
ENDBRANCH  21  22
ENDBRANCH  17  21
ENDBRANCH   1  19
BRANCH   6  26
ATOM     26  N2  UNL     1     157.328 159.249 169.802  0.00  0.00    +0.000 N 
BRANCH  26  27
ATOM     27  C12 UNL     1     157.407 160.680 169.687  0.00  0.00    +0.000 C 
ATOM     28  C13 UNL     1     158.786 161.258 169.596  0.00  0.00    +0.000 C 
ENDBRANCH  26  27
BRANCH  26  29
ATOM     29  C14 UNL     1     157.569 158.622 171.064  0.00  0.00    +0.000 C 
ATOM     30  C15 UNL     1     156.482 158.895 172.078  0.00  0.00    +0.000 C 
ENDBRANCH  26  29
ENDBRANCH   6  26
TORSDOF 9
ENDMDL
MODEL 5
REMARK VINA RESULT:      -5.2      2.458      3.165
REMARK  Name = ./3D_structures\o24_MMV1578842_3D.pdb
REMARK  12 active torsions:
REMARK  status: ('A' for Active; 'I' for Inactive)
REMARK    1  A    between atoms: C1_1  and  C2_2
REMARK    2  A    between atoms: C2_2  and  C3_3
REMARK    3  A    between atoms: C3_3  and  C4_4
REMARK    4  A    between atoms: C4_4  and  O1_5
REMARK    5  A    between atoms: O1_5  and  C5_6
REMARK    6  A    between atoms: N1_8  and  C6_9
REMARK    7  A    between atoms: C11_14  and  N2_15
REMARK    8  A    between atoms: N2_15  and  C12_16
REMARK    9  A    between atoms: N2_15  and  C14_18
REMARK   10  A    between atoms: C12_16  and  C13_17
REMARK   11  A    between atoms: C14_18  and  C15_19
REMARK   12  A    between atoms: C16_21  and  C17_23
REMARK                            x       y       z     vdW  Elec       q    Type
REMARK                         _______ _______ _______ _____ _____    ______ ____
ROOT
ATOM      1  C6  UNL     1     157.150 159.050 169.496  0.00  0.00    +0.000 A 
ATOM      2  C7  UNL     1     158.531 159.016 169.383  0.00  0.00    +0.000 A 
ATOM      3  C8  UNL     1     159.170 158.523 168.237  0.00  0.00    +0.000 A 
ATOM      4  C9  UNL     1     158.405 158.057 167.192  0.00  0.00    +0.000 A 
ATOM      5  C10 UNL     1     157.035 158.071 167.256  0.00  0.00    +0.000 A 
ATOM      6  C11 UNL     1     156.439 158.574 168.421  0.00  0.00    +0.000 A 
ATOM      7  N3  UNL     1     159.226 157.637 166.212  0.00  0.00    +0.000 N 
ATOM      8  C16 UNL     1     160.481 157.840 166.645  0.00  0.00    +0.000 A 
ATOM      9  N4  UNL     1     160.457 158.378 167.875  0.00  0.00    +0.000 NA
ATOM     10  H23 UNL     1     158.902 157.237 165.305  0.00  0.00    +0.000 HD
ENDROOT
BRANCH   8  11
ATOM     11  C17 UNL     1     161.673 157.484 165.802  0.00  0.00    +0.000 C 
ATOM     12  C18 UNL     1     162.800 157.048 166.733  0.00  0.00    +0.000 C 
ATOM     13  C19 UNL     1     163.591 155.907 166.161  0.00  0.00    +0.000 C 
ATOM     14  C20 UNL     1     163.743 156.079 164.673  0.00  0.00    +0.000 C 
ATOM     15  C21 UNL     1     162.409 155.941 164.013  0.00  0.00    +0.000 C 
ATOM     16  C22 UNL     1     161.281 156.356 164.896  0.00  0.00    +0.000 C 
ENDBRANCH   8  11
BRANCH   1  19
ATOM     17  C5  UNL     1     156.290 158.765 171.860  0.00  0.00    +0.000 C 
ATOM     18  O2  UNL     1     156.680 157.605 171.965  0.00  0.00    +0.000 OA
ATOM     19  N1  UNL     1     156.505 159.483 170.681  0.00  0.00    +0.000 N 
ATOM     20  H10 UNL     1     156.112 160.468 170.672  0.00  0.00    +0.000 HD
BRANCH  17  21
ATOM     21  O1  UNL     1     155.627 159.321 172.969  0.00  0.00    +0.000 OA
BRANCH  21  22
ATOM     22  C4  UNL     1     154.944 160.548 172.901  0.00  0.00    +0.000 C 
BRANCH  22  23
ATOM     23  C3  UNL     1     153.648 160.547 173.634  0.00  0.00    +0.000 C 
BRANCH  23  25
ATOM     24  C1  UNL     1     152.810 161.131 171.387  0.00  0.00    +0.000 C 
ATOM     25  C2  UNL     1     152.527 160.305 172.626  0.00  0.00    +0.000 C 
ENDBRANCH  23  25
ENDBRANCH  22  23
ENDBRANCH  21  22
ENDBRANCH  17  21
ENDBRANCH   1  19
BRANCH   6  26
ATOM     26  N2  UNL     1     155.013 158.644 168.441  0.00  0.00    +0.000 N 
BRANCH  26  27
ATOM     27  C12 UNL     1     154.251 157.516 168.904  0.00  0.00    +0.000 C 
ATOM     28  C13 UNL     1     153.021 157.833 169.698  0.00  0.00    +0.000 C 
ENDBRANCH  26  27
BRANCH  26  29
ATOM     29  C14 UNL     1     154.340 159.836 168.029  0.00  0.00    +0.000 C 
ATOM     30  C15 UNL     1     153.756 159.737 166.639  0.00  0.00    +0.000 C 
ENDBRANCH  26  29
ENDBRANCH   6  26
TORSDOF 9
ENDMDL
MODEL 6
REMARK VINA RESULT:      -5.2      1.925      3.581
REMARK  Name = ./3D_structures\o24_MMV1578842_3D.pdb
REMARK  12 active torsions:
REMARK  status: ('A' for Active; 'I' for Inactive)
REMARK    1  A    between atoms: C1_1  and  C2_2
REMARK    2  A    between atoms: C2_2  and  C3_3
REMARK    3  A    between atoms: C3_3  and  C4_4
REMARK    4  A    between atoms: C4_4  and  O1_5
REMARK    5  A    between atoms: O1_5  and  C5_6
REMARK    6  A    between atoms: N1_8  and  C6_9
REMARK    7  A    between atoms: C11_14  and  N2_15
REMARK    8  A    between atoms: N2_15  and  C12_16
REMARK    9  A    between atoms: N2_15  and  C14_18
REMARK   10  A    between atoms: C12_16  and  C13_17
REMARK   11  A    between atoms: C14_18  and  C15_19
REMARK   12  A    between atoms: C16_21  and  C17_23
REMARK                            x       y       z     vdW  Elec       q    Type
REMARK                         _______ _______ _______ _____ _____    ______ ____
ROOT
ATOM      1  C6  UNL     1     155.500 158.211 168.473  0.00  0.00    +0.000 A 
ATOM      2  C7  UNL     1     155.278 157.383 167.384  0.00  0.00    +0.000 A 
ATOM      3  C8  UNL     1     156.329 156.901 166.592  0.00  0.00    +0.000 A 
ATOM      4  C9  UNL     1     157.620 157.259 166.903  0.00  0.00    +0.000 A 
ATOM      5  C10 UNL     1     157.891 158.076 167.971  0.00  0.00    +0.000 A 
ATOM      6  C11 UNL     1     156.809 158.533 168.736  0.00  0.00    +0.000 A 
ATOM      7  N3  UNL     1     158.452 156.685 166.014  0.00  0.00    +0.000 N 
ATOM      8  C16 UNL     1     157.685 155.981 165.165  0.00  0.00    +0.000 A 
ATOM      9  N4  UNL     1     156.393 156.106 165.508  0.00  0.00    +0.000 NA
ATOM     10  H23 UNL     1     159.489 156.795 166.023  0.00  0.00    +0.000 HD
ENDROOT
BRANCH   8  11
ATOM     11  C17 UNL     1     158.280 155.201 164.027  0.00  0.00    +0.000 C 
ATOM     12  C18 UNL     1     157.762 153.768 164.111  0.00  0.00    +0.000 C 
ATOM     13  C19 UNL     1     157.486 153.191 162.753  0.00  0.00    +0.000 C 
ATOM     14  C20 UNL     1     158.529 153.656 161.772  0.00  0.00    +0.000 C 
ATOM     15  C21 UNL     1     158.394 155.129 161.557  0.00  0.00    +0.000 C 
ATOM     16  C22 UNL     1     157.839 155.840 162.745  0.00  0.00    +0.000 C 
ENDBRANCH   8  11
BRANCH   1  19
ATOM     17  C5  UNL     1     153.630 159.856 168.927  0.00  0.00    +0.000 C 
ATOM     18  O2  UNL     1     153.803 160.488 167.888  0.00  0.00    +0.000 OA
ATOM     19  N1  UNL     1     154.433 158.755 169.232  0.00  0.00    +0.000 N 
ATOM     20  H10 UNL     1     154.228 158.287 170.161  0.00  0.00    +0.000 HD
BRANCH  17  21
ATOM     21  O1  UNL     1     152.599 160.293 169.778  0.00  0.00    +0.000 OA
BRANCH  21  22
ATOM     22  C4  UNL     1     151.277 159.829 169.660  0.00  0.00    +0.000 C 
BRANCH  22  23
ATOM     23  C3  UNL     1     150.878 158.890 170.745  0.00  0.00    +0.000 C 
BRANCH  23  25
ATOM     24  C1  UNL     1     150.107 156.550 170.876  0.00  0.00    +0.000 C 
ATOM     25  C2  UNL     1     151.152 157.465 170.270  0.00  0.00    +0.000 C 
ENDBRANCH  23  25
ENDBRANCH  22  23
ENDBRANCH  21  22
ENDBRANCH  17  21
ENDBRANCH   1  19
BRANCH   6  26
ATOM     26  N2  UNL     1     157.116 159.325 169.885  0.00  0.00    +0.000 N 
BRANCH  26  27
ATOM     27  C12 UNL     1     157.423 158.680 171.133  0.00  0.00    +0.000 C 
ATOM     28  C13 UNL     1     156.430 158.877 172.237  0.00  0.00    +0.000 C 
ENDBRANCH  26  27
BRANCH  26  29
ATOM     29  C14 UNL     1     157.145 160.752 169.794  0.00  0.00    +0.000 C 
ATOM     30  C15 UNL     1     158.547 161.315 169.766  0.00  0.00    +0.000 C 
ENDBRANCH  26  29
ENDBRANCH   6  26
TORSDOF 9
ENDMDL
MODEL 7
REMARK VINA RESULT:      -5.2      3.173      9.121
REMARK  Name = ./3D_structures\o24_MMV1578842_3D.pdb
REMARK  12 active torsions:
REMARK  status: ('A' for Active; 'I' for Inactive)
REMARK    1  A    between atoms: C1_1  and  C2_2
REMARK    2  A    between atoms: C2_2  and  C3_3
REMARK    3  A    between atoms: C3_3  and  C4_4
REMARK    4  A    between atoms: C4_4  and  O1_5
REMARK    5  A    between atoms: O1_5  and  C5_6
REMARK    6  A    between atoms: N1_8  and  C6_9
REMARK    7  A    between atoms: C11_14  and  N2_15
REMARK    8  A    between atoms: N2_15  and  C12_16
REMARK    9  A    between atoms: N2_15  and  C14_18
REMARK   10  A    between atoms: C12_16  and  C13_17
REMARK   11  A    between atoms: C14_18  and  C15_19
REMARK   12  A    between atoms: C16_21  and  C17_23
REMARK                            x       y       z     vdW  Elec       q    Type
REMARK                         _______ _______ _______ _____ _____    ______ ____
ROOT
ATOM      1  C6  UNL     1     157.678 156.337 165.182  0.00  0.00    +0.000 A 
ATOM      2  C7  UNL     1     156.665 156.358 166.129  0.00  0.00    +0.000 A 
ATOM      3  C8  UNL     1     156.814 157.010 167.360  0.00  0.00    +0.000 A 
ATOM      4  C9  UNL     1     157.999 157.649 167.641  0.00  0.00    +0.000 A 
ATOM      5  C10 UNL     1     159.031 157.657 166.737  0.00  0.00    +0.000 A 
ATOM      6  C11 UNL     1     158.838 156.994 165.518  0.00  0.00    +0.000 A 
ATOM      7  N3  UNL     1     157.913 158.197 168.867  0.00  0.00    +0.000 N 
ATOM      8  C16 UNL     1     156.690 157.901 169.338  0.00  0.00    +0.000 A 
ATOM      9  N4  UNL     1     156.015 157.180 168.429  0.00  0.00    +0.000 NA
ATOM     10  H23 UNL     1     158.677 158.740 169.323  0.00  0.00    +0.000 HD
ENDROOT
BRANCH   8  11
ATOM     11  C17 UNL     1     156.238 158.355 170.697  0.00  0.00    +0.000 C 
ATOM     12  C18 UNL     1     157.413 159.044 171.384  0.00  0.00    +0.000 C 
ATOM     13  C19 UNL     1     156.974 160.233 172.188  0.00  0.00    +0.000 C 
ATOM     14  C20 UNL     1     155.654 159.948 172.855  0.00  0.00    +0.000 C 
ATOM     15  C21 UNL     1     154.586 159.818 171.817  0.00  0.00    +0.000 C 
ATOM     16  C22 UNL     1     155.106 159.320 170.511  0.00  0.00    +0.000 C 
ENDBRANCH   8  11
BRANCH   1  19
ATOM     17  C5  UNL     1     157.880 154.285 163.714  0.00  0.00    +0.000 C 
ATOM     18  O2  UNL     1     158.337 153.573 164.606  0.00  0.00    +0.000 OA
ATOM     19  N1  UNL     1     157.554 155.620 163.967  0.00  0.00    +0.000 N 
ATOM     20  H10 UNL     1     157.191 156.163 163.132  0.00  0.00    +0.000 HD
BRANCH  17  21
ATOM     21  O1  UNL     1     157.708 153.695 162.449  0.00  0.00    +0.000 OA
BRANCH  21  22
ATOM     22  C4  UNL     1     157.955 152.331 162.214  0.00  0.00    +0.000 C 
BRANCH  22  23
ATOM     23  C3  UNL     1     156.757 151.583 161.745  0.00  0.00    +0.000 C 
BRANCH  23  25
ATOM     24  C1  UNL     1     156.605 150.495 163.955  0.00  0.00    +0.000 C 
ATOM     25  C2  UNL     1     155.847 151.333 162.946  0.00  0.00    +0.000 C 
ENDBRANCH  23  25
ENDBRANCH  22  23
ENDBRANCH  21  22
ENDBRANCH  17  21
ENDBRANCH   1  19
BRANCH   6  26
ATOM     26  N2  UNL     1     159.896 157.071 164.562  0.00  0.00    +0.000 N 
BRANCH  26  27
ATOM     27  C12 UNL     1     159.886 158.114 163.572  0.00  0.00    +0.000 C 
ATOM     28  C13 UNL     1     159.894 157.664 162.143  0.00  0.00    +0.000 C 
ENDBRANCH  26  27
BRANCH  26  29
ATOM     29  C14 UNL     1     160.977 156.136 164.601  0.00  0.00    +0.000 C 
ATOM     30  C15 UNL     1     162.260 156.736 165.129  0.00  0.00    +0.000 C 
ENDBRANCH  26  29
ENDBRANCH   6  26
TORSDOF 9
ENDMDL
MODEL 8
REMARK VINA RESULT:      -5.1      6.780     10.319
REMARK  Name = ./3D_structures\o24_MMV1578842_3D.pdb
REMARK  12 active torsions:
REMARK  status: ('A' for Active; 'I' for Inactive)
REMARK    1  A    between atoms: C1_1  and  C2_2
REMARK    2  A    between atoms: C2_2  and  C3_3
REMARK    3  A    between atoms: C3_3  and  C4_4
REMARK    4  A    between atoms: C4_4  and  O1_5
REMARK    5  A    between atoms: O1_5  and  C5_6
REMARK    6  A    between atoms: N1_8  and  C6_9
REMARK    7  A    between atoms: C11_14  and  N2_15
REMARK    8  A    between atoms: N2_15  and  C12_16
REMARK    9  A    between atoms: N2_15  and  C14_18
REMARK   10  A    between atoms: C12_16  and  C13_17
REMARK   11  A    between atoms: C14_18  and  C15_19
REMARK   12  A    between atoms: C16_21  and  C17_23
REMARK                            x       y       z     vdW  Elec       q    Type
REMARK                         _______ _______ _______ _____ _____    ______ ____
ROOT
ATOM      1  C6  UNL     1     148.893 161.971 168.365  0.00  0.00    +0.000 A 
ATOM      2  C7  UNL     1     149.616 160.836 168.698  0.00  0.00    +0.000 A 
ATOM      3  C8  UNL     1     150.654 160.867 169.640  0.00  0.00    +0.000 A 
ATOM      4  C9  UNL     1     150.967 162.059 170.252  0.00  0.00    +0.000 A 
ATOM      5  C10 UNL     1     150.280 163.209 169.957  0.00  0.00    +0.000 A 
ATOM      6  C11 UNL     1     149.249 163.131 169.010  0.00  0.00    +0.000 A 
ATOM      7  N3  UNL     1     151.984 161.850 171.107  0.00  0.00    +0.000 N 
ATOM      8  C16 UNL     1     152.297 160.546 171.025  0.00  0.00    +0.000 A 
ATOM      9  N4  UNL     1     151.493 159.940 170.135  0.00  0.00    +0.000 NA
ATOM     10  H23 UNL     1     152.415 162.590 171.701  0.00  0.00    +0.000 HD
ENDROOT
BRANCH   8  11
ATOM     11  C17 UNL     1     153.401 159.946 171.848  0.00  0.00    +0.000 C 
ATOM     12  C18 UNL     1     154.660 159.893 170.988  0.00  0.00    +0.000 C 
ATOM     13  C19 UNL     1     155.896 160.204 171.782  0.00  0.00    +0.000 C 
ATOM     14  C20 UNL     1     155.789 159.608 173.161  0.00  0.00    +0.000 C 
ATOM     15  C21 UNL     1     154.703 160.298 173.922  0.00  0.00    +0.000 C 
ATOM     16  C22 UNL     1     153.622 160.826 173.041  0.00  0.00    +0.000 C 
ENDBRANCH   8  11
BRANCH   1  19
ATOM     17  C5  UNL     1     146.586 161.467 167.454  0.00  0.00    +0.000 C 
ATOM     18  O2  UNL     1     146.174 160.975 168.502  0.00  0.00    +0.000 OA
ATOM     19  N1  UNL     1     147.891 161.955 167.363  0.00  0.00    +0.000 N 
ATOM     20  H10 UNL     1     148.167 162.338 166.413  0.00  0.00    +0.000 HD
BRANCH  17  21
ATOM     21  O1  UNL     1     145.689 161.511 166.372  0.00  0.00    +0.000 OA
BRANCH  21  22
ATOM     22  C4  UNL     1     144.983 162.676 166.025  0.00  0.00    +0.000 C 
BRANCH  22  23
ATOM     23  C3  UNL     1     143.865 162.432 165.073  0.00  0.00    +0.000 C 
BRANCH  23  25
ATOM     24  C1  UNL     1     144.332 161.439 162.862  0.00  0.00    +0.000 C 
ATOM     25  C2  UNL     1     144.364 162.727 163.660  0.00  0.00    +0.000 C 
ENDBRANCH  23  25
ENDBRANCH  22  23
ENDBRANCH  21  22
ENDBRANCH  17  21
ENDBRANCH   1  19
BRANCH   6  26
ATOM     26  N2  UNL     1     148.501 164.322 168.766  0.00  0.00    +0.000 N 
BRANCH  26  27
ATOM     27  C12 UNL     1     148.564 164.951 167.475  0.00  0.00    +0.000 C 
ATOM     28  C13 UNL     1     147.278 165.519 166.956  0.00  0.00    +0.000 C 
ENDBRANCH  26  27
BRANCH  26  29
ATOM     29  C14 UNL     1     147.670 164.878 169.789  0.00  0.00    +0.000 C 
ATOM     30  C15 UNL     1     146.529 163.970 170.184  0.00  0.00    +0.000 C 
ENDBRANCH  26  29
ENDBRANCH   6  26
TORSDOF 9
ENDMDL
MODEL 9
REMARK VINA RESULT:      -5.1      5.259      7.992
REMARK  Name = ./3D_structures\o24_MMV1578842_3D.pdb
REMARK  12 active torsions:
REMARK  status: ('A' for Active; 'I' for Inactive)
REMARK    1  A    between atoms: C1_1  and  C2_2
REMARK    2  A    between atoms: C2_2  and  C3_3
REMARK    3  A    between atoms: C3_3  and  C4_4
REMARK    4  A    between atoms: C4_4  and  O1_5
REMARK    5  A    between atoms: O1_5  and  C5_6
REMARK    6  A    between atoms: N1_8  and  C6_9
REMARK    7  A    between atoms: C11_14  and  N2_15
REMARK    8  A    between atoms: N2_15  and  C12_16
REMARK    9  A    between atoms: N2_15  and  C14_18
REMARK   10  A    between atoms: C12_16  and  C13_17
REMARK   11  A    between atoms: C14_18  and  C15_19
REMARK   12  A    between atoms: C16_21  and  C17_23
REMARK                            x       y       z     vdW  Elec       q    Type
REMARK                         _______ _______ _______ _____ _____    ______ ____
ROOT
ATOM      1  C6  UNL     1     150.736 161.824 167.514  0.00  0.00    +0.000 A 
ATOM      2  C7  UNL     1     151.248 160.628 167.995  0.00  0.00    +0.000 A 
ATOM      3  C8  UNL     1     152.615 160.457 168.253  0.00  0.00    +0.000 A 
ATOM      4  C9  UNL     1     153.476 161.504 168.023  0.00  0.00    +0.000 A 
ATOM      5  C10 UNL     1     153.018 162.707 167.548  0.00  0.00    +0.000 A 
ATOM      6  C11 UNL     1     151.644 162.834 167.305  0.00  0.00    +0.000 A 
ATOM      7  N3  UNL     1     154.725 161.113 168.338  0.00  0.00    +0.000 N 
ATOM      8  C16 UNL     1     154.636 159.839 168.757  0.00  0.00    +0.000 A 
ATOM      9  N4  UNL     1     153.357 159.432 168.710  0.00  0.00    +0.000 NA
ATOM     10  H23 UNL     1     155.570 161.718 168.255  0.00  0.00    +0.000 HD
ENDROOT
BRANCH   8  11
ATOM     11  C17 UNL     1     155.849 159.067 169.195  0.00  0.00    +0.000 C 
ATOM     12  C18 UNL     1     157.008 159.442 168.277  0.00  0.00    +0.000 C 
ATOM     13  C19 UNL     1     158.308 159.533 169.024  0.00  0.00    +0.000 C 
ATOM     14  C20 UNL     1     158.376 158.458 170.076  0.00  0.00    +0.000 C 
ATOM     15  C21 UNL     1     157.351 158.723 171.131  0.00  0.00    +0.000 C 
ATOM     16  C22 UNL     1     156.159 159.453 170.610  0.00  0.00    +0.000 C 
ENDBRANCH   8  11
BRANCH   1  19
ATOM     17  C5  UNL     1     148.295 162.226 168.047  0.00  0.00    +0.000 C 
ATOM     18  O2  UNL     1     148.478 162.345 169.256  0.00  0.00    +0.000 OA
ATOM     19  N1  UNL     1     149.366 161.975 167.187  0.00  0.00    +0.000 N 
ATOM     20  H10 UNL     1     149.110 161.862 166.164  0.00  0.00    +0.000 HD
BRANCH  17  21
ATOM     21  O1  UNL     1     146.973 162.352 167.585  0.00  0.00    +0.000 OA
BRANCH  21  22
ATOM     22  C4  UNL     1     145.885 162.541 168.456  0.00  0.00    +0.000 C 
BRANCH  22  23
ATOM     23  C3  UNL     1     145.029 163.704 168.092  0.00  0.00    +0.000 C 
BRANCH  23  25
ATOM     24  C1  UNL     1     146.250 164.979 169.817  0.00  0.00    +0.000 C 
ATOM     25  C2  UNL     1     145.817 164.983 168.364  0.00  0.00    +0.000 C 
ENDBRANCH  23  25
ENDBRANCH  22  23
ENDBRANCH  21  22
ENDBRANCH  17  21
ENDBRANCH   1  19
BRANCH   6  26
ATOM     26  N2  UNL     1     151.177 164.114 166.877  0.00  0.00    +0.000 N 
BRANCH  26  27
ATOM     27  C12 UNL     1     151.058 164.394 165.472  0.00  0.00    +0.000 C 
ATOM     28  C13 UNL     1     152.072 165.338 164.900  0.00  0.00    +0.000 C 
ENDBRANCH  26  27
BRANCH  26  29
ATOM     29  C14 UNL     1     150.802 165.106 167.835  0.00  0.00    +0.000 C 
ATOM     30  C15 UNL     1     149.449 165.718 167.557  0.00  0.00    +0.000 C 
ENDBRANCH  26  29
ENDBRANCH   6  26
TORSDOF 9
ENDMDL
