MODEL 1
REMARK VINA RESULT:      -6.4      0.000      0.000
REMARK  Name = ./3D_structures\o25_MMV1579776_3D.pdb
REMARK  6 active torsions:
REMARK  status: ('A' for Active; 'I' for Inactive)
REMARK    1  A    between atoms: N1_1  and  S1_2
REMARK    2  A    between atoms: S1_2  and  C1_5
REMARK    3  A    between atoms: C4_8  and  N2_9
REMARK    4  A    between atoms: N3_12  and  C6_13
REMARK    5  A    between atoms: C6_13  and  C7_14
REMARK    6  A    between atoms: C6_13  and  C13_20
REMARK                            x       y       z     vdW  Elec       q    Type
REMARK                         _______ _______ _______ _____ _____    ______ ____
ROOT
ATOM      1  N2  UNL     1     152.056 161.455 167.876  0.00  0.00    +0.000 N 
ATOM      2  C5  UNL     1     152.719 160.404 168.525  0.00  0.00    +0.000 C 
ATOM      3  O3  UNL     1     152.182 159.807 169.482  0.00  0.00    +0.000 OA
ATOM      4  N3  UNL     1     154.047 159.996 168.085  0.00  0.00    +0.000 N 
ATOM      5  H5  UNL     1     152.571 161.938 167.059  0.00  0.00    +0.000 HD
ATOM      6  H6  UNL     1     154.451 160.523 167.285  0.00  0.00    +0.000 HD
ENDROOT
BRANCH   1  10
ATOM      7  C1  UNL     1     148.233 163.021 168.996  0.00  0.00    +0.000 A 
ATOM      8  C2  UNL     1     149.422 163.445 169.552  0.00  0.00    +0.000 A 
ATOM      9  C3  UNL     1     150.641 162.935 169.190  0.00  0.00    +0.000 A 
ATOM     10  C4  UNL     1     150.762 161.927 168.211  0.00  0.00    +0.000 A 
ATOM     11  C19 UNL     1     149.580 161.511 167.665  0.00  0.00    +0.000 A 
ATOM     12  C20 UNL     1     148.334 162.039 168.041  0.00  0.00    +0.000 A 
BRANCH   7  13
ATOM     13  S1  UNL     1     146.694 163.695 169.480  0.00  0.00    +0.000 S 
ATOM     14  O1  UNL     1     145.821 162.682 170.157  0.00  0.00    +0.000 OA
ATOM     15  O2  UNL     1     145.914 164.181 168.267  0.00  0.00    +0.000 OA
BRANCH  13  16
ATOM     16  N1  UNL     1     146.895 165.061 170.512  0.00  0.00    +0.000 NA
ATOM     17  H1  UNL     1     147.852 165.132 170.910  0.00  0.00    +0.000 HD
ATOM     18  H2  UNL     1     146.138 165.084 171.202  0.00  0.00    +0.000 HD
ENDBRANCH  13  16
ENDBRANCH   7  13
ENDBRANCH   1  10
BRANCH   4  19
ATOM     19  C6  UNL     1     154.723 158.922 168.748  0.00  0.00    +0.000 C 
BRANCH  19  20
ATOM     20  C7  UNL     1     155.554 159.362 169.878  0.00  0.00    +0.000 A 
ATOM     21  C8  UNL     1     156.391 160.444 169.765  0.00  0.00    +0.000 A 
ATOM     22  C9  UNL     1     157.181 160.858 170.846  0.00  0.00    +0.000 A 
ATOM     23  C10 UNL     1     157.096 160.153 172.022  0.00  0.00    +0.000 A 
ATOM     24  C11 UNL     1     156.266 159.065 172.163  0.00  0.00    +0.000 A 
ATOM     25  C12 UNL     1     155.501 158.687 171.070  0.00  0.00    +0.000 A 
ENDBRANCH  19  20
BRANCH  19  26
ATOM     26  C13 UNL     1     155.487 158.063 167.796  0.00  0.00    +0.000 A 
ATOM     27  C14 UNL     1     155.096 157.936 166.471  0.00  0.00    +0.000 A 
ATOM     28  C15 UNL     1     155.778 157.152 165.571  0.00  0.00    +0.000 A 
ATOM     29  C16 UNL     1     156.899 156.451 165.963  0.00  0.00    +0.000 A 
ATOM     30  C17 UNL     1     157.296 156.569 167.275  0.00  0.00    +0.000 A 
ATOM     31  C18 UNL     1     156.610 157.356 168.176  0.00  0.00    +0.000 A 
ENDBRANCH  19  26
ENDBRANCH   4  19
TORSDOF 6
ENDMDL
MODEL 2
REMARK VINA RESULT:      -6.2      6.940     11.017
REMARK  Name = ./3D_structures\o25_MMV1579776_3D.pdb
REMARK  6 active torsions:
REMARK  status: ('A' for Active; 'I' for Inactive)
REMARK    1  A    between atoms: N1_1  and  S1_2
REMARK    2  A    between atoms: S1_2  and  C1_5
REMARK    3  A    between atoms: C4_8  and  N2_9
REMARK    4  A    between atoms: N3_12  and  C6_13
REMARK    5  A    between atoms: C6_13  and  C7_14
REMARK    6  A    between atoms: C6_13  and  C13_20
REMARK                            x       y       z     vdW  Elec       q    Type
REMARK                         _______ _______ _______ _____ _____    ______ ____
ROOT
ATOM      1  N2  UNL     1     158.598 155.634 165.117  0.00  0.00    +0.000 N 
ATOM      2  C5  UNL     1     157.453 156.124 165.758  0.00  0.00    +0.000 C 
ATOM      3  O3  UNL     1     156.317 155.720 165.431  0.00  0.00    +0.000 OA
ATOM      4  N3  UNL     1     157.578 157.116 166.818  0.00  0.00    +0.000 N 
ATOM      5  H5  UNL     1     159.553 156.024 165.437  0.00  0.00    +0.000 HD
ATOM      6  H6  UNL     1     158.543 157.421 167.054  0.00  0.00    +0.000 HD
ENDROOT
BRANCH   1  10
ATOM      7  C1  UNL     1     158.589 152.561 162.137  0.00  0.00    +0.000 A 
ATOM      8  C2  UNL     1     158.763 152.316 163.482  0.00  0.00    +0.000 A 
ATOM      9  C3  UNL     1     158.769 153.306 164.429  0.00  0.00    +0.000 A 
ATOM     10  C4  UNL     1     158.595 154.663 164.084  0.00  0.00    +0.000 A 
ATOM     11  C19 UNL     1     158.423 154.899 162.749  0.00  0.00    +0.000 A 
ATOM     12  C20 UNL     1     158.418 153.879 161.784  0.00  0.00    +0.000 A 
BRANCH   7  13
ATOM     13  S1  UNL     1     158.585 151.273 160.954  0.00  0.00    +0.000 S 
ATOM     14  O1  UNL     1     159.089 151.730 159.619  0.00  0.00    +0.000 OA
ATOM     15  O2  UNL     1     157.171 150.761 160.720  0.00  0.00    +0.000 OA
BRANCH  13  16
ATOM     16  N1  UNL     1     159.512 149.921 161.486  0.00  0.00    +0.000 NA
ATOM     17  H1  UNL     1     159.949 149.394 160.704  0.00  0.00    +0.000 HD
ATOM     18  H2  UNL     1     158.952 149.352 162.129  0.00  0.00    +0.000 HD
ENDBRANCH  13  16
ENDBRANCH   7  13
ENDBRANCH   1  10
BRANCH   4  19
ATOM     19  C6  UNL     1     156.407 157.617 167.474  0.00  0.00    +0.000 C 
BRANCH  19  20
ATOM     20  C7  UNL     1     155.732 158.690 166.728  0.00  0.00    +0.000 A 
ATOM     21  C8  UNL     1     156.435 159.757 166.226  0.00  0.00    +0.000 A 
ATOM     22  C9  UNL     1     155.785 160.776 165.517  0.00  0.00    +0.000 A 
ATOM     23  C10 UNL     1     154.427 160.679 165.335  0.00  0.00    +0.000 A 
ATOM     24  C11 UNL     1     153.698 159.621 165.827  0.00  0.00    +0.000 A 
ATOM     25  C12 UNL     1     154.378 158.634 166.524  0.00  0.00    +0.000 A 
ENDBRANCH  19  20
BRANCH  19  26
ATOM     26  C13 UNL     1     156.676 158.007 168.889  0.00  0.00    +0.000 A 
ATOM     27  C14 UNL     1     155.642 158.145 169.804  0.00  0.00    +0.000 A 
ATOM     28  C15 UNL     1     155.857 158.504 171.114  0.00  0.00    +0.000 A 
ATOM     29  C16 UNL     1     157.135 158.743 171.572  0.00  0.00    +0.000 A 
ATOM     30  C17 UNL     1     158.168 158.610 170.674  0.00  0.00    +0.000 A 
ATOM     31  C18 UNL     1     157.950 158.251 169.360  0.00  0.00    +0.000 A 
ENDBRANCH  19  26
ENDBRANCH   4  19
TORSDOF 6
ENDMDL
MODEL 3
REMARK VINA RESULT:      -6.1      1.387      1.757
REMARK  Name = ./3D_structures\o25_MMV1579776_3D.pdb
REMARK  6 active torsions:
REMARK  status: ('A' for Active; 'I' for Inactive)
REMARK    1  A    between atoms: N1_1  and  S1_2
REMARK    2  A    between atoms: S1_2  and  C1_5
REMARK    3  A    between atoms: C4_8  and  N2_9
REMARK    4  A    between atoms: N3_12  and  C6_13
REMARK    5  A    between atoms: C6_13  and  C7_14
REMARK    6  A    between atoms: C6_13  and  C13_20
REMARK                            x       y       z     vdW  Elec       q    Type
REMARK                         _______ _______ _______ _____ _____    ______ ____
ROOT
ATOM      1  N2  UNL     1     151.786 162.255 168.731  0.00  0.00    +0.000 N 
ATOM      2  C5  UNL     1     152.265 161.205 169.525  0.00  0.00    +0.000 C 
ATOM      3  O3  UNL     1     151.493 160.569 170.273  0.00  0.00    +0.000 OA
ATOM      4  N3  UNL     1     153.676 160.844 169.484  0.00  0.00    +0.000 N 
ATOM      5  H5  UNL     1     152.500 162.774 168.108  0.00  0.00    +0.000 HD
ATOM      6  H6  UNL     1     154.278 161.403 168.847  0.00  0.00    +0.000 HD
ENDROOT
BRANCH   1  10
ATOM      7  C1  UNL     1     147.752 163.689 168.715  0.00  0.00    +0.000 A 
ATOM      8  C2  UNL     1     148.711 164.124 169.605  0.00  0.00    +0.000 A 
ATOM      9  C3  UNL     1     149.999 163.656 169.605  0.00  0.00    +0.000 A 
ATOM     10  C4  UNL     1     150.435 162.683 168.682  0.00  0.00    +0.000 A 
ATOM     11  C19 UNL     1     149.479 162.256 167.803  0.00  0.00    +0.000 A 
ATOM     12  C20 UNL     1     148.161 162.740 167.809  0.00  0.00    +0.000 A 
BRANCH   7  13
ATOM     13  S1  UNL     1     146.116 164.308 168.742  0.00  0.00    +0.000 S 
ATOM     14  O1  UNL     1     145.098 163.210 168.799  0.00  0.00    +0.000 OA
ATOM     15  O2  UNL     1     145.819 165.095 167.473  0.00  0.00    +0.000 OA
BRANCH  13  16
ATOM     16  N1  UNL     1     145.870 165.391 170.059  0.00  0.00    +0.000 NA
ATOM     17  H1  UNL     1     144.866 165.582 170.244  0.00  0.00    +0.000 HD
ATOM     18  H2  UNL     1     146.451 166.225 169.930  0.00  0.00    +0.000 HD
ENDBRANCH  13  16
ENDBRANCH   7  13
ENDBRANCH   1  10
BRANCH   4  19
ATOM     19  C6  UNL     1     154.165 159.771 170.297  0.00  0.00    +0.000 C 
BRANCH  19  20
ATOM     20  C7  UNL     1     154.810 160.223 171.539  0.00  0.00    +0.000 A 
ATOM     21  C8  UNL     1     156.086 160.728 171.533  0.00  0.00    +0.000 A 
ATOM     22  C9  UNL     1     156.695 161.157 172.720  0.00  0.00    +0.000 A 
ATOM     23  C10 UNL     1     155.981 161.058 173.890  0.00  0.00    +0.000 A 
ATOM     24  C11 UNL     1     154.702 160.555 173.925  0.00  0.00    +0.000 A 
ATOM     25  C12 UNL     1     154.135 160.142 172.729  0.00  0.00    +0.000 A 
ENDBRANCH  19  20
BRANCH  19  26
ATOM     26  C13 UNL     1     155.034 158.832 169.528  0.00  0.00    +0.000 A 
ATOM     27  C14 UNL     1     155.522 159.170 168.274  0.00  0.00    +0.000 A 
ATOM     28  C15 UNL     1     156.324 158.327 167.541  0.00  0.00    +0.000 A 
ATOM     29  C16 UNL     1     156.679 157.091 168.039  0.00  0.00    +0.000 A 
ATOM     30  C17 UNL     1     156.200 156.745 169.281  0.00  0.00    +0.000 A 
ATOM     31  C18 UNL     1     155.396 157.592 170.015  0.00  0.00    +0.000 A 
ENDBRANCH  19  26
ENDBRANCH   4  19
TORSDOF 6
ENDMDL
MODEL 4
REMARK VINA RESULT:      -6.0      1.347      1.796
REMARK  Name = ./3D_structures\o25_MMV1579776_3D.pdb
REMARK  6 active torsions:
REMARK  status: ('A' for Active; 'I' for Inactive)
REMARK    1  A    between atoms: N1_1  and  S1_2
REMARK    2  A    between atoms: S1_2  and  C1_5
REMARK    3  A    between atoms: C4_8  and  N2_9
REMARK    4  A    between atoms: N3_12  and  C6_13
REMARK    5  A    between atoms: C6_13  and  C7_14
REMARK    6  A    between atoms: C6_13  and  C13_20
REMARK                            x       y       z     vdW  Elec       q    Type
REMARK                         _______ _______ _______ _____ _____    ______ ____
ROOT
ATOM      1  N2  UNL     1     153.043 161.463 167.227  0.00  0.00    +0.000 N 
ATOM      2  C5  UNL     1     153.577 160.219 167.587  0.00  0.00    +0.000 C 
ATOM      3  O3  UNL     1     152.944 159.447 168.338  0.00  0.00    +0.000 OA
ATOM      4  N3  UNL     1     154.883 159.813 167.085  0.00  0.00    +0.000 N 
ATOM      5  H5  UNL     1     153.638 162.092 166.580  0.00  0.00    +0.000 HD
ATOM      6  H6  UNL     1     155.371 160.489 166.464  0.00  0.00    +0.000 HD
ENDROOT
BRANCH   1  10
ATOM      7  C1  UNL     1     149.326 163.079 168.607  0.00  0.00    +0.000 A 
ATOM      8  C2  UNL     1     150.550 163.419 169.143  0.00  0.00    +0.000 A 
ATOM      9  C3  UNL     1     151.734 162.893 168.698  0.00  0.00    +0.000 A 
ATOM     10  C4  UNL     1     151.781 161.955 167.646  0.00  0.00    +0.000 A 
ATOM     11  C19 UNL     1     150.565 161.622 167.119  0.00  0.00    +0.000 A 
ATOM     12  C20 UNL     1     149.354 162.165 167.580  0.00  0.00    +0.000 A 
BRANCH   7  13
ATOM     13  S1  UNL     1     147.833 163.770 169.198  0.00  0.00    +0.000 S 
ATOM     14  O1  UNL     1     146.842 162.718 169.595  0.00  0.00    +0.000 OA
ATOM     15  O2  UNL     1     147.158 164.600 168.115  0.00  0.00    +0.000 OA
BRANCH  13  16
ATOM     16  N1  UNL     1     148.108 164.831 170.528  0.00  0.00    +0.000 NA
ATOM     17  H1  UNL     1     147.305 164.875 171.185  0.00  0.00    +0.000 HD
ATOM     18  H2  UNL     1     148.430 165.740 170.180  0.00  0.00    +0.000 HD
ENDBRANCH  13  16
ENDBRANCH   7  13
ENDBRANCH   1  10
BRANCH   4  19
ATOM     19  C6  UNL     1     155.429 158.540 167.453  0.00  0.00    +0.000 C 
BRANCH  19  20
ATOM     20  C7  UNL     1     156.155 158.562 168.732  0.00  0.00    +0.000 A 
ATOM     21  C8  UNL     1     155.746 157.792 169.792  0.00  0.00    +0.000 A 
ATOM     22  C9  UNL     1     156.442 157.818 171.008  0.00  0.00    +0.000 A 
ATOM     23  C10 UNL     1     157.544 158.632 171.112  0.00  0.00    +0.000 A 
ATOM     24  C11 UNL     1     157.975 159.413 170.065  0.00  0.00    +0.000 A 
ATOM     25  C12 UNL     1     157.259 159.360 168.878  0.00  0.00    +0.000 A 
ENDBRANCH  19  20
BRANCH  19  26
ATOM     26  C13 UNL     1     156.247 157.939 166.359  0.00  0.00    +0.000 A 
ATOM     27  C14 UNL     1     156.749 158.719 165.327  0.00  0.00    +0.000 A 
ATOM     28  C15 UNL     1     157.504 158.194 164.304  0.00  0.00    +0.000 A 
ATOM     29  C16 UNL     1     157.796 156.847 164.270  0.00  0.00    +0.000 A 
ATOM     30  C17 UNL     1     157.303 156.064 165.289  0.00  0.00    +0.000 A 
ATOM     31  C18 UNL     1     156.545 156.592 166.313  0.00  0.00    +0.000 A 
ENDBRANCH  19  26
ENDBRANCH   4  19
TORSDOF 6
ENDMDL
MODEL 5
REMARK VINA RESULT:      -6.0      4.186      5.720
REMARK  Name = ./3D_structures\o25_MMV1579776_3D.pdb
REMARK  6 active torsions:
REMARK  status: ('A' for Active; 'I' for Inactive)
REMARK    1  A    between atoms: N1_1  and  S1_2
REMARK    2  A    between atoms: S1_2  and  C1_5
REMARK    3  A    between atoms: C4_8  and  N2_9
REMARK    4  A    between atoms: N3_12  and  C6_13
REMARK    5  A    between atoms: C6_13  and  C7_14
REMARK    6  A    between atoms: C6_13  and  C13_20
REMARK                            x       y       z     vdW  Elec       q    Type
REMARK                         _______ _______ _______ _____ _____    ______ ____
ROOT
ATOM      1  N2  UNL     1     151.285 156.349 170.503  0.00  0.00    +0.000 N 
ATOM      2  C5  UNL     1     152.094 157.381 170.010  0.00  0.00    +0.000 C 
ATOM      3  O3  UNL     1     151.675 158.558 169.976  0.00  0.00    +0.000 OA
ATOM      4  N3  UNL     1     153.439 157.090 169.531  0.00  0.00    +0.000 N 
ATOM      5  H5  UNL     1     151.698 155.350 170.503  0.00  0.00    +0.000 HD
ATOM      6  H6  UNL     1     153.742 156.097 169.579  0.00  0.00    +0.000 HD
ENDROOT
BRANCH   1  10
ATOM      7  C1  UNL     1     147.248 156.867 171.828  0.00  0.00    +0.000 A 
ATOM      8  C2  UNL     1     147.636 156.974 170.510  0.00  0.00    +0.000 A 
ATOM      9  C3  UNL     1     148.931 156.811 170.095  0.00  0.00    +0.000 A 
ATOM     10  C4  UNL     1     149.969 156.519 171.004  0.00  0.00    +0.000 A 
ATOM     11  C19 UNL     1     149.578 156.414 172.309  0.00  0.00    +0.000 A 
ATOM     12  C20 UNL     1     148.248 156.582 172.727  0.00  0.00    +0.000 A 
BRANCH   7  13
ATOM     13  S1  UNL     1     145.584 157.080 172.324  0.00  0.00    +0.000 S 
ATOM     14  O1  UNL     1     145.198 156.143 173.427  0.00  0.00    +0.000 OA
ATOM     15  O2  UNL     1     144.637 156.786 171.169  0.00  0.00    +0.000 OA
BRANCH  13  16
ATOM     16  N1  UNL     1     145.271 158.702 172.812  0.00  0.00    +0.000 NA
ATOM     17  H1  UNL     1     145.754 158.962 173.694  0.00  0.00    +0.000 HD
ATOM     18  H2  UNL     1     144.260 158.873 172.808  0.00  0.00    +0.000 HD
ENDBRANCH  13  16
ENDBRANCH   7  13
ENDBRANCH   1  10
BRANCH   4  19
ATOM     19  C6  UNL     1     154.265 158.146 169.027  0.00  0.00    +0.000 C 
BRANCH  19  20
ATOM     20  C7  UNL     1     155.123 157.735 167.906  0.00  0.00    +0.000 A 
ATOM     21  C8  UNL     1     154.757 157.980 166.605  0.00  0.00    +0.000 A 
ATOM     22  C9  UNL     1     155.578 157.585 165.541  0.00  0.00    +0.000 A 
ATOM     23  C10 UNL     1     156.760 156.946 165.832  0.00  0.00    +0.000 A 
ATOM     24  C11 UNL     1     157.151 156.688 167.126  0.00  0.00    +0.000 A 
ATOM     25  C12 UNL     1     156.310 157.094 168.151  0.00  0.00    +0.000 A 
ENDBRANCH  19  20
BRANCH  19  26
ATOM     26  C13 UNL     1     155.046 158.816 170.108  0.00  0.00    +0.000 A 
ATOM     27  C14 UNL     1     155.731 158.077 171.062  0.00  0.00    +0.000 A 
ATOM     28  C15 UNL     1     156.459 158.664 172.070  0.00  0.00    +0.000 A 
ATOM     29  C16 UNL     1     156.534 160.037 172.169  0.00  0.00    +0.000 A 
ATOM     30  C17 UNL     1     155.858 160.780 171.229  0.00  0.00    +0.000 A 
ATOM     31  C18 UNL     1     155.129 160.189 170.218  0.00  0.00    +0.000 A 
ENDBRANCH  19  26
ENDBRANCH   4  19
TORSDOF 6
ENDMDL
MODEL 6
REMARK VINA RESULT:      -5.9      2.466      4.467
REMARK  Name = ./3D_structures\o25_MMV1579776_3D.pdb
REMARK  6 active torsions:
REMARK  status: ('A' for Active; 'I' for Inactive)
REMARK    1  A    between atoms: N1_1  and  S1_2
REMARK    2  A    between atoms: S1_2  and  C1_5
REMARK    3  A    between atoms: C4_8  and  N2_9
REMARK    4  A    between atoms: N3_12  and  C6_13
REMARK    5  A    between atoms: C6_13  and  C7_14
REMARK    6  A    between atoms: C6_13  and  C13_20
REMARK                            x       y       z     vdW  Elec       q    Type
REMARK                         _______ _______ _______ _____ _____    ______ ____
ROOT
ATOM      1  N2  UNL     1     153.042 160.106 166.483  0.00  0.00    +0.000 N 
ATOM      2  C5  UNL     1     154.383 160.013 166.877  0.00  0.00    +0.000 C 
ATOM      3  O3  UNL     1     154.996 161.020 167.293  0.00  0.00    +0.000 OA
ATOM      4  N3  UNL     1     155.079 158.735 166.805  0.00  0.00    +0.000 N 
ATOM      5  H5  UNL     1     152.565 159.205 166.126  0.00  0.00    +0.000 HD
ATOM      6  H6  UNL     1     154.527 157.927 166.453  0.00  0.00    +0.000 HD
ENDROOT
BRANCH   1  10
ATOM      7  C1  UNL     1     150.635 163.634 166.779  0.00  0.00    +0.000 A 
ATOM      8  C2  UNL     1     150.575 162.594 167.681  0.00  0.00    +0.000 A 
ATOM      9  C3  UNL     1     151.346 161.466 167.576  0.00  0.00    +0.000 A 
ATOM     10  C4  UNL     1     152.266 161.292 166.522  0.00  0.00    +0.000 A 
ATOM     11  C19 UNL     1     152.321 162.327 165.631  0.00  0.00    +0.000 A 
ATOM     12  C20 UNL     1     151.527 163.480 165.744  0.00  0.00    +0.000 A 
BRANCH   7  13
ATOM     13  S1  UNL     1     149.637 165.060 166.943  0.00  0.00    +0.000 S 
ATOM     14  O1  UNL     1     150.016 165.881 168.138  0.00  0.00    +0.000 OA
ATOM     15  O2  UNL     1     148.177 164.676 167.138  0.00  0.00    +0.000 OA
BRANCH  13  16
ATOM     16  N1  UNL     1     149.698 166.043 165.528  0.00  0.00    +0.000 NA
ATOM     17  H1  UNL     1     148.789 166.091 165.028  0.00  0.00    +0.000 HD
ATOM     18  H2  UNL     1     150.495 165.761 164.949  0.00  0.00    +0.000 HD
ENDBRANCH  13  16
ENDBRANCH   7  13
ENDBRANCH   1  10
BRANCH   4  19
ATOM     19  C6  UNL     1     156.450 158.641 167.208  0.00  0.00    +0.000 C 
BRANCH  19  20
ATOM     20  C7  UNL     1     157.215 157.638 166.451  0.00  0.00    +0.000 A 
ATOM     21  C8  UNL     1     158.585 157.699 166.375  0.00  0.00    +0.000 A 
ATOM     22  C9  UNL     1     159.308 156.741 165.652  0.00  0.00    +0.000 A 
ATOM     23  C10 UNL     1     158.611 155.738 165.022  0.00  0.00    +0.000 A 
ATOM     24  C11 UNL     1     157.239 155.653 165.082  0.00  0.00    +0.000 A 
ATOM     25  C12 UNL     1     156.561 156.620 165.807  0.00  0.00    +0.000 A 
ENDBRANCH  19  20
BRANCH  19  26
ATOM     26  C13 UNL     1     156.594 158.455 168.681  0.00  0.00    +0.000 A 
ATOM     27  C14 UNL     1     157.426 159.275 169.430  0.00  0.00    +0.000 A 
ATOM     28  C15 UNL     1     157.581 159.129 170.788  0.00  0.00    +0.000 A 
ATOM     29  C16 UNL     1     156.899 158.142 171.467  0.00  0.00    +0.000 A 
ATOM     30  C17 UNL     1     156.071 157.323 170.735  0.00  0.00    +0.000 A 
ATOM     31  C18 UNL     1     155.917 157.470 169.373  0.00  0.00    +0.000 A 
ENDBRANCH  19  26
ENDBRANCH   4  19
TORSDOF 6
ENDMDL
MODEL 7
REMARK VINA RESULT:      -5.9      8.175     12.112
REMARK  Name = ./3D_structures\o25_MMV1579776_3D.pdb
REMARK  6 active torsions:
REMARK  status: ('A' for Active; 'I' for Inactive)
REMARK    1  A    between atoms: N1_1  and  S1_2
REMARK    2  A    between atoms: S1_2  and  C1_5
REMARK    3  A    between atoms: C4_8  and  N2_9
REMARK    4  A    between atoms: N3_12  and  C6_13
REMARK    5  A    between atoms: C6_13  and  C7_14
REMARK    6  A    between atoms: C6_13  and  C13_20
REMARK                            x       y       z     vdW  Elec       q    Type
REMARK                         _______ _______ _______ _____ _____    ______ ____
ROOT
ATOM      1  N2  UNL     1     161.603 159.132 165.902  0.00  0.00    +0.000 N 
ATOM      2  C5  UNL     1     160.471 158.349 166.164  0.00  0.00    +0.000 C 
ATOM      3  O3  UNL     1     160.365 157.722 167.239  0.00  0.00    +0.000 OA
ATOM      4  N3  UNL     1     159.402 158.260 165.178  0.00  0.00    +0.000 N 
ATOM      5  H5  UNL     1     161.643 159.647 164.953  0.00  0.00    +0.000 HD
ATOM      6  H6  UNL     1     159.536 158.799 164.299  0.00  0.00    +0.000 HD
ENDROOT
BRANCH   1  10
ATOM      7  C1  UNL     1     164.965 159.460 168.532  0.00  0.00    +0.000 A 
ATOM      8  C2  UNL     1     164.624 158.298 167.873  0.00  0.00    +0.000 A 
ATOM      9  C3  UNL     1     163.543 158.201 167.037  0.00  0.00    +0.000 A 
ATOM     10  C4  UNL     1     162.695 159.300 166.791  0.00  0.00    +0.000 A 
ATOM     11  C19 UNL     1     163.038 160.449 167.446  0.00  0.00    +0.000 A 
ATOM     12  C20 UNL     1     164.147 160.541 168.303  0.00  0.00    +0.000 A 
BRANCH   7  13
ATOM     13  S1  UNL     1     166.352 159.550 169.593  0.00  0.00    +0.000 S 
ATOM     14  O1  UNL     1     165.967 159.895 170.999  0.00  0.00    +0.000 OA
ATOM     15  O2  UNL     1     167.309 160.643 169.135  0.00  0.00    +0.000 OA
BRANCH  13  16
ATOM     16  N1  UNL     1     167.251 158.080 169.587  0.00  0.00    +0.000 NA
ATOM     17  H1  UNL     1     166.648 157.235 169.613  0.00  0.00    +0.000 HD
ATOM     18  H2  UNL     1     167.973 158.116 170.314  0.00  0.00    +0.000 HD
ENDBRANCH  13  16
ENDBRANCH   7  13
ENDBRANCH   1  10
BRANCH   4  19
ATOM     19  C6  UNL     1     158.244 157.459 165.446  0.00  0.00    +0.000 C 
BRANCH  19  20
ATOM     20  C7  UNL     1     158.122 156.291 164.560  0.00  0.00    +0.000 A 
ATOM     21  C8  UNL     1     158.215 155.014 165.054  0.00  0.00    +0.000 A 
ATOM     22  C9  UNL     1     158.098 153.905 164.204  0.00  0.00    +0.000 A 
ATOM     23  C10 UNL     1     157.887 154.130 162.865  0.00  0.00    +0.000 A 
ATOM     24  C11 UNL     1     157.789 155.399 162.345  0.00  0.00    +0.000 A 
ATOM     25  C12 UNL     1     157.910 156.470 163.218  0.00  0.00    +0.000 A 
ENDBRANCH  19  20
BRANCH  19  26
ATOM     26  C13 UNL     1     156.992 158.270 165.474  0.00  0.00    +0.000 A 
ATOM     27  C14 UNL     1     155.826 157.770 166.037  0.00  0.00    +0.000 A 
ATOM     28  C15 UNL     1     154.656 158.491 166.078  0.00  0.00    +0.000 A 
ATOM     29  C16 UNL     1     154.601 159.764 165.551  0.00  0.00    +0.000 A 
ATOM     30  C17 UNL     1     155.751 160.270 164.990  0.00  0.00    +0.000 A 
ATOM     31  C18 UNL     1     156.923 159.545 164.950  0.00  0.00    +0.000 A 
ENDBRANCH  19  26
ENDBRANCH   4  19
TORSDOF 6
ENDMDL
MODEL 8
REMARK VINA RESULT:      -5.9      3.060      3.675
REMARK  Name = ./3D_structures\o25_MMV1579776_3D.pdb
REMARK  6 active torsions:
REMARK  status: ('A' for Active; 'I' for Inactive)
REMARK    1  A    between atoms: N1_1  and  S1_2
REMARK    2  A    between atoms: S1_2  and  C1_5
REMARK    3  A    between atoms: C4_8  and  N2_9
REMARK    4  A    between atoms: N3_12  and  C6_13
REMARK    5  A    between atoms: C6_13  and  C7_14
REMARK    6  A    between atoms: C6_13  and  C13_20
REMARK                            x       y       z     vdW  Elec       q    Type
REMARK                         _______ _______ _______ _____ _____    ______ ____
ROOT
ATOM      1  N2  UNL     1     152.043 163.298 167.322  0.00  0.00    +0.000 N 
ATOM      2  C5  UNL     1     152.497 162.084 166.788  0.00  0.00    +0.000 C 
ATOM      3  O3  UNL     1     151.751 161.385 166.071  0.00  0.00    +0.000 OA
ATOM      4  N3  UNL     1     153.853 161.627 167.067  0.00  0.00    +0.000 N 
ATOM      5  H5  UNL     1     152.730 163.858 167.940  0.00  0.00    +0.000 HD
ATOM      6  H6  UNL     1     154.435 162.243 167.668  0.00  0.00    +0.000 HD
ENDROOT
BRANCH   1  10
ATOM      7  C1  UNL     1     148.224 165.065 166.538  0.00  0.00    +0.000 A 
ATOM      8  C2  UNL     1     149.404 165.537 166.006  0.00  0.00    +0.000 A 
ATOM      9  C3  UNL     1     150.623 164.968 166.266  0.00  0.00    +0.000 A 
ATOM     10  C4  UNL     1     150.752 163.844 167.108  0.00  0.00    +0.000 A 
ATOM     11  C19 UNL     1     149.578 163.381 167.632  0.00  0.00    +0.000 A 
ATOM     12  C20 UNL     1     148.332 163.970 167.361  0.00  0.00    +0.000 A 
BRANCH   7  13
ATOM     13  S1  UNL     1     146.684 165.815 166.184  0.00  0.00    +0.000 S 
ATOM     14  O1  UNL     1     146.841 167.214 165.670  0.00  0.00    +0.000 OA
ATOM     15  O2  UNL     1     145.835 165.920 167.444  0.00  0.00    +0.000 OA
BRANCH  13  16
ATOM     16  N1  UNL     1     145.771 164.887 165.055  0.00  0.00    +0.000 NA
ATOM     17  H1  UNL     1     144.957 165.404 164.668  0.00  0.00    +0.000 HD
ATOM     18  H2  UNL     1     145.546 163.975 165.464  0.00  0.00    +0.000 HD
ENDBRANCH  13  16
ENDBRANCH   7  13
ENDBRANCH   1  10
BRANCH   4  19
ATOM     19  C6  UNL     1     154.317 160.386 166.521  0.00  0.00    +0.000 C 
BRANCH  19  20
ATOM     20  C7  UNL     1     154.782 159.435 167.541  0.00  0.00    +0.000 A 
ATOM     21  C8  UNL     1     155.760 159.780 168.441  0.00  0.00    +0.000 A 
ATOM     22  C9  UNL     1     156.199 158.869 169.410  0.00  0.00    +0.000 A 
ATOM     23  C10 UNL     1     155.625 157.620 169.438  0.00  0.00    +0.000 A 
ATOM     24  C11 UNL     1     154.644 157.248 168.549  0.00  0.00    +0.000 A 
ATOM     25  C12 UNL     1     154.237 158.178 167.605  0.00  0.00    +0.000 A 
ENDBRANCH  19  20
BRANCH  19  26
ATOM     26  C13 UNL     1     155.330 160.587 165.444  0.00  0.00    +0.000 A 
ATOM     27  C14 UNL     1     155.559 161.843 164.900  0.00  0.00    +0.000 A 
ATOM     28  C15 UNL     1     156.485 162.060 163.906  0.00  0.00    +0.000 A 
ATOM     29  C16 UNL     1     157.233 161.015 163.408  0.00  0.00    +0.000 A 
ATOM     30  C17 UNL     1     157.014 159.765 163.940  0.00  0.00    +0.000 A 
ATOM     31  C18 UNL     1     156.085 159.549 164.936  0.00  0.00    +0.000 A 
ENDBRANCH  19  26
ENDBRANCH   4  19
TORSDOF 6
ENDMDL
MODEL 9
REMARK VINA RESULT:      -5.8      2.461      3.000
REMARK  Name = ./3D_structures\o25_MMV1579776_3D.pdb
REMARK  6 active torsions:
REMARK  status: ('A' for Active; 'I' for Inactive)
REMARK    1  A    between atoms: N1_1  and  S1_2
REMARK    2  A    between atoms: S1_2  and  C1_5
REMARK    3  A    between atoms: C4_8  and  N2_9
REMARK    4  A    between atoms: N3_12  and  C6_13
REMARK    5  A    between atoms: C6_13  and  C7_14
REMARK    6  A    between atoms: C6_13  and  C13_20
REMARK                            x       y       z     vdW  Elec       q    Type
REMARK                         _______ _______ _______ _____ _____    ______ ____
ROOT
ATOM      1  N2  UNL     1     154.237 161.987 166.530  0.00  0.00    +0.000 N 
ATOM      2  C5  UNL     1     154.470 160.664 166.925  0.00  0.00    +0.000 C 
ATOM      3  O3  UNL     1     153.587 160.012 167.523  0.00  0.00    +0.000 OA
ATOM      4  N3  UNL     1     155.752 160.032 166.640  0.00  0.00    +0.000 N 
ATOM      5  H5  UNL     1     155.039 162.503 166.022  0.00  0.00    +0.000 HD
ATOM      6  H6  UNL     1     156.454 160.614 166.142  0.00  0.00    +0.000 HD
ENDROOT
BRANCH   1  10
ATOM      7  C1  UNL     1     150.557 164.128 166.981  0.00  0.00    +0.000 A 
ATOM      8  C2  UNL     1     151.153 163.887 165.761  0.00  0.00    +0.000 A 
ATOM      9  C3  UNL     1     152.333 163.205 165.626  0.00  0.00    +0.000 A 
ATOM     10  C4  UNL     1     153.028 162.696 166.744  0.00  0.00    +0.000 A 
ATOM     11  C19 UNL     1     152.432 162.938 167.949  0.00  0.00    +0.000 A 
ATOM     12  C20 UNL     1     151.221 163.639 168.080  0.00  0.00    +0.000 A 
BRANCH   7  13
ATOM     13  S1  UNL     1     149.048 165.002 167.117  0.00  0.00    +0.000 S 
ATOM     14  O1  UNL     1     148.903 165.674 168.448  0.00  0.00    +0.000 OA
ATOM     15  O2  UNL     1     147.864 164.053 166.990  0.00  0.00    +0.000 OA
BRANCH  13  16
ATOM     16  N1  UNL     1     148.876 166.170 165.862  0.00  0.00    +0.000 NA
ATOM     17  H1  UNL     1     149.767 166.365 165.364  0.00  0.00    +0.000 HD
ATOM     18  H2  UNL     1     148.397 166.998 166.227  0.00  0.00    +0.000 HD
ENDBRANCH  13  16
ENDBRANCH   7  13
ENDBRANCH   1  10
BRANCH   4  19
ATOM     19  C6  UNL     1     155.989 158.678 167.045  0.00  0.00    +0.000 C 
BRANCH  19  20
ATOM     20  C7  UNL     1     156.691 158.566 168.332  0.00  0.00    +0.000 A 
ATOM     21  C8  UNL     1     158.026 158.867 168.442  0.00  0.00    +0.000 A 
ATOM     22  C9  UNL     1     158.689 158.757 169.672  0.00  0.00    +0.000 A 
ATOM     23  C10 UNL     1     157.968 158.342 170.765  0.00  0.00    +0.000 A 
ATOM     24  C11 UNL     1     156.630 158.034 170.684  0.00  0.00    +0.000 A 
ATOM     25  C12 UNL     1     156.011 158.155 169.449  0.00  0.00    +0.000 A 
ENDBRANCH  19  20
BRANCH  19  26
ATOM     26  C13 UNL     1     156.656 157.878 165.976  0.00  0.00    +0.000 A 
ATOM     27  C14 UNL     1     156.658 156.492 166.013  0.00  0.00    +0.000 A 
ATOM     28  C15 UNL     1     157.264 155.727 165.044  0.00  0.00    +0.000 A 
ATOM     29  C16 UNL     1     157.904 156.326 163.979  0.00  0.00    +0.000 A 
ATOM     30  C17 UNL     1     157.908 157.701 163.932  0.00  0.00    +0.000 A 
ATOM     31  C18 UNL     1     157.300 158.466 164.905  0.00  0.00    +0.000 A 
ENDBRANCH  19  26
ENDBRANCH   4  19
TORSDOF 6
ENDMDL
