MODEL 1
REMARK VINA RESULT:      -6.0      0.000      0.000
REMARK  Name = ./3D_structures\o26_MMV1579775_3D.pdb
REMARK  5 active torsions:
REMARK  status: ('A' for Active; 'I' for Inactive)
REMARK    1  A    between atoms: C3_4  and  O2_5
REMARK    2  A    between atoms: O2_5  and  C4_6
REMARK    3  A    between atoms: C4_6  and  C5_7
REMARK    4  A    between atoms: N1_15  and  C13_16
REMARK    5  A    between atoms: C13_16  and  C14_17
REMARK                            x       y       z     vdW  Elec       q    Type
REMARK                         _______ _______ _______ _____ _____    ______ ____
ROOT
ATOM      1  O1  UNL     1     158.685 158.127 170.096  0.00  0.00    +0.000 OA
ATOM      2  C1  UNL     1     157.487 157.906 169.749  0.00  0.00    +0.000 A 
ATOM      3  C2  UNL     1     157.210 157.571 168.418  0.00  0.00    +0.000 A 
ATOM      4  C3  UNL     1     155.920 157.323 167.998  0.00  0.00    +0.000 A 
ATOM      5  C11 UNL     1     154.922 157.418 168.940  0.00  0.00    +0.000 A 
ATOM      6  C12 UNL     1     155.228 157.752 170.253  0.00  0.00    +0.000 A 
ATOM      7  N1  UNL     1     156.500 157.994 170.657  0.00  0.00    +0.000 N 
ENDROOT
BRANCH   4   8
ATOM      8  O2  UNL     1     155.619 156.993 166.705  0.00  0.00    +0.000 OA
BRANCH   8   9
ATOM      9  C4  UNL     1     156.106 157.775 165.647  0.00  0.00    +0.000 C 
BRANCH   9  10
ATOM     10  C5  UNL     1     155.335 159.053 165.534  0.00  0.00    +0.000 A 
ATOM     11  C6  UNL     1     155.924 160.224 165.091  0.00  0.00    +0.000 A 
ATOM     12  C7  UNL     1     155.186 161.386 164.999  0.00  0.00    +0.000 A 
ATOM     13  C8  UNL     1     153.851 161.440 165.335  0.00  0.00    +0.000 A 
ATOM     14  C9  UNL     1     153.256 160.270 165.778  0.00  0.00    +0.000 A 
ATOM     15  C10 UNL     1     153.999 159.111 165.869  0.00  0.00    +0.000 A 
ENDBRANCH   9  10
ENDBRANCH   8   9
ENDBRANCH   4   8
BRANCH   7  16
ATOM     16  C13 UNL     1     156.749 158.331 172.020  0.00  0.00    +0.000 C 
BRANCH  16  17
ATOM     17  C14 UNL     1     156.339 159.670 172.434  0.00  0.00    +0.000 A 
ATOM     18  C15 UNL     1     156.952 160.777 171.894  0.00  0.00    +0.000 A 
ATOM     19  C16 UNL     1     156.603 162.066 172.253  0.00  0.00    +0.000 A 
ATOM     20  C17 UNL     1     155.614 162.276 173.177  0.00  0.00    +0.000 A 
ATOM     21  C18 UNL     1     154.990 161.176 173.727  0.00  0.00    +0.000 A 
ATOM     22  C19 UNL     1     155.344 159.887 173.363  0.00  0.00    +0.000 A 
ENDBRANCH  16  17
ENDBRANCH   7  16
TORSDOF 5
ENDMDL
MODEL 2
REMARK VINA RESULT:      -5.8      4.267      6.429
REMARK  Name = ./3D_structures\o26_MMV1579775_3D.pdb
REMARK  5 active torsions:
REMARK  status: ('A' for Active; 'I' for Inactive)
REMARK    1  A    between atoms: C3_4  and  O2_5
REMARK    2  A    between atoms: O2_5  and  C4_6
REMARK    3  A    between atoms: C4_6  and  C5_7
REMARK    4  A    between atoms: N1_15  and  C13_16
REMARK    5  A    between atoms: C13_16  and  C14_17
REMARK                            x       y       z     vdW  Elec       q    Type
REMARK                         _______ _______ _______ _____ _____    ______ ____
ROOT
ATOM      1  O1  UNL     1     155.032 157.127 166.116  0.00  0.00    +0.000 OA
ATOM      2  C1  UNL     1     156.289 156.988 166.026  0.00  0.00    +0.000 A 
ATOM      3  C2  UNL     1     156.809 155.914 165.294  0.00  0.00    +0.000 A 
ATOM      4  C3  UNL     1     158.169 155.725 165.171  0.00  0.00    +0.000 A 
ATOM      5  C11 UNL     1     158.990 156.635 165.797  0.00  0.00    +0.000 A 
ATOM      6  C12 UNL     1     158.444 157.691 166.517  0.00  0.00    +0.000 A 
ATOM      7  N1  UNL     1     157.105 157.867 166.632  0.00  0.00    +0.000 N 
ENDROOT
BRANCH   4   8
ATOM      8  O2  UNL     1     158.706 154.686 164.463  0.00  0.00    +0.000 OA
BRANCH   8   9
ATOM      9  C4  UNL     1     157.904 153.944 163.583  0.00  0.00    +0.000 C 
BRANCH   9  10
ATOM     10  C5  UNL     1     157.818 152.516 164.022  0.00  0.00    +0.000 A 
ATOM     11  C6  UNL     1     156.677 151.759 163.822  0.00  0.00    +0.000 A 
ATOM     12  C7  UNL     1     156.629 150.444 164.238  0.00  0.00    +0.000 A 
ATOM     13  C8  UNL     1     157.693 149.829 164.861  0.00  0.00    +0.000 A 
ATOM     14  C9  UNL     1     158.837 150.582 165.063  0.00  0.00    +0.000 A 
ATOM     15  C10 UNL     1     158.880 151.896 164.645  0.00  0.00    +0.000 A 
ENDBRANCH   9  10
ENDBRANCH   8   9
ENDBRANCH   4   8
BRANCH   7  16
ATOM     16  C13 UNL     1     156.607 158.973 167.383  0.00  0.00    +0.000 C 
BRANCH  16  17
ATOM     17  C14 UNL     1     156.731 158.868 168.835  0.00  0.00    +0.000 A 
ATOM     18  C15 UNL     1     156.173 157.801 169.500  0.00  0.00    +0.000 A 
ATOM     19  C16 UNL     1     156.261 157.656 170.872  0.00  0.00    +0.000 A 
ATOM     20  C17 UNL     1     156.922 158.595 171.620  0.00  0.00    +0.000 A 
ATOM     21  C18 UNL     1     157.487 159.670 170.966  0.00  0.00    +0.000 A 
ATOM     22  C19 UNL     1     157.396 159.810 169.591  0.00  0.00    +0.000 A 
ENDBRANCH  16  17
ENDBRANCH   7  16
TORSDOF 5
ENDMDL
MODEL 3
REMARK VINA RESULT:      -5.7      2.873      4.990
REMARK  Name = ./3D_structures\o26_MMV1579775_3D.pdb
REMARK  5 active torsions:
REMARK  status: ('A' for Active; 'I' for Inactive)
REMARK    1  A    between atoms: C3_4  and  O2_5
REMARK    2  A    between atoms: O2_5  and  C4_6
REMARK    3  A    between atoms: C4_6  and  C5_7
REMARK    4  A    between atoms: N1_15  and  C13_16
REMARK    5  A    between atoms: C13_16  and  C14_17
REMARK                            x       y       z     vdW  Elec       q    Type
REMARK                         _______ _______ _______ _____ _____    ______ ____
ROOT
ATOM      1  O1  UNL     1     155.038 157.516 165.971  0.00  0.00    +0.000 OA
ATOM      2  C1  UNL     1     154.333 158.382 166.571  0.00  0.00    +0.000 A 
ATOM      3  C2  UNL     1     153.694 159.380 165.825  0.00  0.00    +0.000 A 
ATOM      4  C3  UNL     1     152.918 160.342 166.436  0.00  0.00    +0.000 A 
ATOM      5  C11 UNL     1     152.800 160.278 167.806  0.00  0.00    +0.000 A 
ATOM      6  C12 UNL     1     153.447 159.276 168.519  0.00  0.00    +0.000 A 
ATOM      7  N1  UNL     1     154.208 158.335 167.908  0.00  0.00    +0.000 N 
ENDROOT
BRANCH   4   8
ATOM      8  O2  UNL     1     152.281 161.328 165.735  0.00  0.00    +0.000 OA
BRANCH   8   9
ATOM      9  C4  UNL     1     151.448 162.240 166.400  0.00  0.00    +0.000 C 
BRANCH   9  10
ATOM     10  C5  UNL     1     151.555 163.600 165.784  0.00  0.00    +0.000 A 
ATOM     11  C6  UNL     1     150.576 164.561 165.964  0.00  0.00    +0.000 A 
ATOM     12  C7  UNL     1     150.703 165.806 165.382  0.00  0.00    +0.000 A 
ATOM     13  C8  UNL     1     151.790 166.150 164.609  0.00  0.00    +0.000 A 
ATOM     14  C9  UNL     1     152.773 165.192 164.426  0.00  0.00    +0.000 A 
ATOM     15  C10 UNL     1     152.640 163.949 165.010  0.00  0.00    +0.000 A 
ENDBRANCH   9  10
ENDBRANCH   8   9
ENDBRANCH   4   8
BRANCH   7  16
ATOM     16  C13 UNL     1     154.844 157.331 168.696  0.00  0.00    +0.000 C 
BRANCH  16  17
ATOM     17  C14 UNL     1     156.032 157.753 169.432  0.00  0.00    +0.000 A 
ATOM     18  C15 UNL     1     155.947 158.041 170.775  0.00  0.00    +0.000 A 
ATOM     19  C16 UNL     1     157.041 158.446 171.517  0.00  0.00    +0.000 A 
ATOM     20  C17 UNL     1     158.267 158.574 170.917  0.00  0.00    +0.000 A 
ATOM     21  C18 UNL     1     158.367 158.288 169.571  0.00  0.00    +0.000 A 
ATOM     22  C19 UNL     1     157.267 157.883 168.834  0.00  0.00    +0.000 A 
ENDBRANCH  16  17
ENDBRANCH   7  16
TORSDOF 5
ENDMDL
MODEL 4
REMARK VINA RESULT:      -5.7      4.670      8.690
REMARK  Name = ./3D_structures\o26_MMV1579775_3D.pdb
REMARK  5 active torsions:
REMARK  status: ('A' for Active; 'I' for Inactive)
REMARK    1  A    between atoms: C3_4  and  O2_5
REMARK    2  A    between atoms: O2_5  and  C4_6
REMARK    3  A    between atoms: C4_6  and  C5_7
REMARK    4  A    between atoms: N1_15  and  C13_16
REMARK    5  A    between atoms: C13_16  and  C14_17
REMARK                            x       y       z     vdW  Elec       q    Type
REMARK                         _______ _______ _______ _____ _____    ______ ____
ROOT
ATOM      1  O1  UNL     1     160.624 155.343 163.759  0.00  0.00    +0.000 OA
ATOM      2  C1  UNL     1     159.505 155.620 164.285  0.00  0.00    +0.000 A 
ATOM      3  C2  UNL     1     159.416 156.692 165.181  0.00  0.00    +0.000 A 
ATOM      4  C3  UNL     1     158.219 157.028 165.777  0.00  0.00    +0.000 A 
ATOM      5  C11 UNL     1     157.120 156.265 165.454  0.00  0.00    +0.000 A 
ATOM      6  C12 UNL     1     157.240 155.207 164.563  0.00  0.00    +0.000 A 
ATOM      7  N1  UNL     1     158.422 154.885 163.982  0.00  0.00    +0.000 N 
ENDROOT
BRANCH   4   8
ATOM      8  O2  UNL     1     158.102 158.070 166.655  0.00  0.00    +0.000 OA
BRANCH   8   9
ATOM      9  C4  UNL     1     158.850 158.079 167.841  0.00  0.00    +0.000 C 
BRANCH   9  10
ATOM     10  C5  UNL     1     157.949 158.023 169.036  0.00  0.00    +0.000 A 
ATOM     11  C6  UNL     1     156.783 157.279 169.035  0.00  0.00    +0.000 A 
ATOM     12  C7  UNL     1     155.972 157.247 170.151  0.00  0.00    +0.000 A 
ATOM     13  C8  UNL     1     156.278 157.940 171.303  0.00  0.00    +0.000 A 
ATOM     14  C9  UNL     1     157.445 158.685 171.310  0.00  0.00    +0.000 A 
ATOM     15  C10 UNL     1     158.251 158.713 170.190  0.00  0.00    +0.000 A 
ENDBRANCH   9  10
ENDBRANCH   8   9
ENDBRANCH   4   8
BRANCH   7  16
ATOM     16  C13 UNL     1     158.478 153.788 163.072  0.00  0.00    +0.000 C 
BRANCH  16  17
ATOM     17  C14 UNL     1     158.028 152.500 163.594  0.00  0.00    +0.000 A 
ATOM     18  C15 UNL     1     156.840 151.957 163.163  0.00  0.00    +0.000 A 
ATOM     19  C16 UNL     1     156.369 150.743 163.628  0.00  0.00    +0.000 A 
ATOM     20  C17 UNL     1     157.092 150.035 164.551  0.00  0.00    +0.000 A 
ATOM     21  C18 UNL     1     158.286 150.567 164.992  0.00  0.00    +0.000 A 
ATOM     22  C19 UNL     1     158.752 151.784 164.523  0.00  0.00    +0.000 A 
ENDBRANCH  16  17
ENDBRANCH   7  16
TORSDOF 5
ENDMDL
MODEL 5
REMARK VINA RESULT:      -5.6      2.808      7.931
REMARK  Name = ./3D_structures\o26_MMV1579775_3D.pdb
REMARK  5 active torsions:
REMARK  status: ('A' for Active; 'I' for Inactive)
REMARK    1  A    between atoms: C3_4  and  O2_5
REMARK    2  A    between atoms: O2_5  and  C4_6
REMARK    3  A    between atoms: C4_6  and  C5_7
REMARK    4  A    between atoms: N1_15  and  C13_16
REMARK    5  A    between atoms: C13_16  and  C14_17
REMARK                            x       y       z     vdW  Elec       q    Type
REMARK                         _______ _______ _______ _____ _____    ______ ____
ROOT
ATOM      1  O1  UNL     1     155.378 156.725 165.692  0.00  0.00    +0.000 OA
ATOM      2  C1  UNL     1     156.320 157.091 166.456  0.00  0.00    +0.000 A 
ATOM      3  C2  UNL     1     156.058 157.301 167.815  0.00  0.00    +0.000 A 
ATOM      4  C3  UNL     1     157.054 157.701 168.681  0.00  0.00    +0.000 A 
ATOM      5  C11 UNL     1     158.312 157.883 168.153  0.00  0.00    +0.000 A 
ATOM      6  C12 UNL     1     158.541 157.667 166.800  0.00  0.00    +0.000 A 
ATOM      7  N1  UNL     1     157.554 157.274 165.956  0.00  0.00    +0.000 N 
ENDROOT
BRANCH   4   8
ATOM      8  O2  UNL     1     156.828 157.913 170.013  0.00  0.00    +0.000 OA
BRANCH   8   9
ATOM      9  C4  UNL     1     157.728 158.683 170.766  0.00  0.00    +0.000 C 
BRANCH   9  10
ATOM     10  C5  UNL     1     156.996 159.540 171.750  0.00  0.00    +0.000 A 
ATOM     11  C6  UNL     1     156.094 159.007 172.653  0.00  0.00    +0.000 A 
ATOM     12  C7  UNL     1     155.434 159.825 173.548  0.00  0.00    +0.000 A 
ATOM     13  C8  UNL     1     155.637 161.187 173.589  0.00  0.00    +0.000 A 
ATOM     14  C9  UNL     1     156.540 161.726 172.689  0.00  0.00    +0.000 A 
ATOM     15  C10 UNL     1     157.196 160.904 171.796  0.00  0.00    +0.000 A 
ENDBRANCH   9  10
ENDBRANCH   8   9
ENDBRANCH   4   8
BRANCH   7  16
ATOM     16  C13 UNL     1     157.855 157.066 164.578  0.00  0.00    +0.000 C 
BRANCH  16  17
ATOM     17  C14 UNL     1     158.017 155.676 164.161  0.00  0.00    +0.000 A 
ATOM     18  C15 UNL     1     157.523 155.256 162.947  0.00  0.00    +0.000 A 
ATOM     19  C16 UNL     1     157.650 153.952 162.507  0.00  0.00    +0.000 A 
ATOM     20  C17 UNL     1     158.286 153.023 163.289  0.00  0.00    +0.000 A 
ATOM     21  C18 UNL     1     158.786 153.430 164.508  0.00  0.00    +0.000 A 
ATOM     22  C19 UNL     1     158.657 154.738 164.943  0.00  0.00    +0.000 A 
ENDBRANCH  16  17
ENDBRANCH   7  16
TORSDOF 5
ENDMDL
MODEL 6
REMARK VINA RESULT:      -5.6      5.782      7.625
REMARK  Name = ./3D_structures\o26_MMV1579775_3D.pdb
REMARK  5 active torsions:
REMARK  status: ('A' for Active; 'I' for Inactive)
REMARK    1  A    between atoms: C3_4  and  O2_5
REMARK    2  A    between atoms: O2_5  and  C4_6
REMARK    3  A    between atoms: C4_6  and  C5_7
REMARK    4  A    between atoms: N1_15  and  C13_16
REMARK    5  A    between atoms: C13_16  and  C14_17
REMARK                            x       y       z     vdW  Elec       q    Type
REMARK                         _______ _______ _______ _____ _____    ______ ____
ROOT
ATOM      1  O1  UNL     1     162.686 161.492 166.146  0.00  0.00    +0.000 OA
ATOM      2  C1  UNL     1     162.198 160.390 166.536  0.00  0.00    +0.000 A 
ATOM      3  C2  UNL     1     160.808 160.234 166.580  0.00  0.00    +0.000 A 
ATOM      4  C3  UNL     1     160.234 159.052 166.998  0.00  0.00    +0.000 A 
ATOM      5  C11 UNL     1     161.086 158.036 167.368  0.00  0.00    +0.000 A 
ATOM      6  C12 UNL     1     162.462 158.221 167.314  0.00  0.00    +0.000 A 
ATOM      7  N1  UNL     1     163.015 159.388 166.901  0.00  0.00    +0.000 N 
ENDROOT
BRANCH   4   8
ATOM      8  O2  UNL     1     158.880 158.870 167.052  0.00  0.00    +0.000 OA
BRANCH   8   9
ATOM      9  C4  UNL     1     158.350 157.637 167.461  0.00  0.00    +0.000 C 
BRANCH   9  10
ATOM     10  C5  UNL     1     157.697 157.762 168.802  0.00  0.00    +0.000 A 
ATOM     11  C6  UNL     1     158.296 158.445 169.845  0.00  0.00    +0.000 A 
ATOM     12  C7  UNL     1     157.669 158.542 171.070  0.00  0.00    +0.000 A 
ATOM     13  C8  UNL     1     156.437 157.975 171.313  0.00  0.00    +0.000 A 
ATOM     14  C9  UNL     1     155.832 157.291 170.273  0.00  0.00    +0.000 A 
ATOM     15  C10 UNL     1     156.464 157.197 169.050  0.00  0.00    +0.000 A 
ENDBRANCH   9  10
ENDBRANCH   8   9
ENDBRANCH   4   8
BRANCH   7  16
ATOM     16  C13 UNL     1     164.436 159.513 166.866  0.00  0.00    +0.000 C 
BRANCH  16  17
ATOM     17  C14 UNL     1     165.104 159.591 168.162  0.00  0.00    +0.000 A 
ATOM     18  C15 UNL     1     164.949 160.705 168.954  0.00  0.00    +0.000 A 
ATOM     19  C16 UNL     1     165.560 160.828 170.187  0.00  0.00    +0.000 A 
ATOM     20  C17 UNL     1     166.355 159.818 170.663  0.00  0.00    +0.000 A 
ATOM     21  C18 UNL     1     166.520 158.695 169.880  0.00  0.00    +0.000 A 
ATOM     22  C19 UNL     1     165.904 158.577 168.645  0.00  0.00    +0.000 A 
ENDBRANCH  16  17
ENDBRANCH   7  16
TORSDOF 5
ENDMDL
MODEL 7
REMARK VINA RESULT:      -5.6      2.804      7.423
REMARK  Name = ./3D_structures\o26_MMV1579775_3D.pdb
REMARK  5 active torsions:
REMARK  status: ('A' for Active; 'I' for Inactive)
REMARK    1  A    between atoms: C3_4  and  O2_5
REMARK    2  A    between atoms: O2_5  and  C4_6
REMARK    3  A    between atoms: C4_6  and  C5_7
REMARK    4  A    between atoms: N1_15  and  C13_16
REMARK    5  A    between atoms: C13_16  and  C14_17
REMARK                            x       y       z     vdW  Elec       q    Type
REMARK                         _______ _______ _______ _____ _____    ______ ____
ROOT
ATOM      1  O1  UNL     1     159.905 159.187 166.905  0.00  0.00    +0.000 OA
ATOM      2  C1  UNL     1     158.992 158.626 167.582  0.00  0.00    +0.000 A 
ATOM      3  C2  UNL     1     158.981 158.777 168.974  0.00  0.00    +0.000 A 
ATOM      4  C3  UNL     1     158.007 158.185 169.749  0.00  0.00    +0.000 A 
ATOM      5  C11 UNL     1     157.049 157.442 169.097  0.00  0.00    +0.000 A 
ATOM      6  C12 UNL     1     157.086 157.310 167.714  0.00  0.00    +0.000 A 
ATOM      7  N1  UNL     1     158.049 157.897 166.961  0.00  0.00    +0.000 N 
ENDROOT
BRANCH   4   8
ATOM      8  O2  UNL     1     157.970 158.314 171.110  0.00  0.00    +0.000 OA
BRANCH   8   9
ATOM      9  C4  UNL     1     156.741 158.297 171.786  0.00  0.00    +0.000 C 
BRANCH   9  10
ATOM     10  C5  UNL     1     156.436 159.644 172.364  0.00  0.00    +0.000 A 
ATOM     11  C6  UNL     1     157.071 160.789 171.920  0.00  0.00    +0.000 A 
ATOM     12  C7  UNL     1     156.769 162.017 172.472  0.00  0.00    +0.000 A 
ATOM     13  C8  UNL     1     155.835 162.163 173.475  0.00  0.00    +0.000 A 
ATOM     14  C9  UNL     1     155.195 161.020 173.923  0.00  0.00    +0.000 A 
ATOM     15  C10 UNL     1     155.502 159.795 173.367  0.00  0.00    +0.000 A 
ENDBRANCH   9  10
ENDBRANCH   8   9
ENDBRANCH   4   8
BRANCH   7  16
ATOM     16  C13 UNL     1     158.030 157.726 165.545  0.00  0.00    +0.000 C 
BRANCH  16  17
ATOM     17  C14 UNL     1     158.365 156.391 165.058  0.00  0.00    +0.000 A 
ATOM     18  C15 UNL     1     159.678 155.986 164.996  0.00  0.00    +0.000 A 
ATOM     19  C16 UNL     1     160.047 154.734 164.541  0.00  0.00    +0.000 A 
ATOM     20  C17 UNL     1     159.089 153.844 164.131  0.00  0.00    +0.000 A 
ATOM     21  C18 UNL     1     157.768 154.235 164.188  0.00  0.00    +0.000 A 
ATOM     22  C19 UNL     1     157.405 155.491 164.645  0.00  0.00    +0.000 A 
ENDBRANCH  16  17
ENDBRANCH   7  16
TORSDOF 5
ENDMDL
MODEL 8
REMARK VINA RESULT:      -5.5      4.519      6.446
REMARK  Name = ./3D_structures\o26_MMV1579775_3D.pdb
REMARK  5 active torsions:
REMARK  status: ('A' for Active; 'I' for Inactive)
REMARK    1  A    between atoms: C3_4  and  O2_5
REMARK    2  A    between atoms: O2_5  and  C4_6
REMARK    3  A    between atoms: C4_6  and  C5_7
REMARK    4  A    between atoms: N1_15  and  C13_16
REMARK    5  A    between atoms: C13_16  and  C14_17
REMARK                            x       y       z     vdW  Elec       q    Type
REMARK                         _______ _______ _______ _____ _____    ______ ____
ROOT
ATOM      1  O1  UNL     1     160.049 157.874 166.612  0.00  0.00    +0.000 OA
ATOM      2  C1  UNL     1     158.969 157.339 166.219  0.00  0.00    +0.000 A 
ATOM      3  C2  UNL     1     159.025 156.178 165.438  0.00  0.00    +0.000 A 
ATOM      4  C3  UNL     1     157.875 155.564 164.990  0.00  0.00    +0.000 A 
ATOM      5  C11 UNL     1     156.675 156.139 165.342  0.00  0.00    +0.000 A 
ATOM      6  C12 UNL     1     156.653 157.292 166.118  0.00  0.00    +0.000 A 
ATOM      7  N1  UNL     1     157.790 157.888 166.554  0.00  0.00    +0.000 N 
ENDROOT
BRANCH   4   8
ATOM      8  O2  UNL     1     157.897 154.429 164.226  0.00  0.00    +0.000 OA
BRANCH   8   9
ATOM      9  C4  UNL     1     158.861 153.439 164.465  0.00  0.00    +0.000 C 
BRANCH   9  10
ATOM     10  C5  UNL     1     158.238 152.078 164.444  0.00  0.00    +0.000 A 
ATOM     11  C6  UNL     1     158.810 151.003 165.100  0.00  0.00    +0.000 A 
ATOM     12  C7  UNL     1     158.212 149.760 165.061  0.00  0.00    +0.000 A 
ATOM     13  C8  UNL     1     157.035 149.531 164.382  0.00  0.00    +0.000 A 
ATOM     14  C9  UNL     1     156.457 150.603 163.724  0.00  0.00    +0.000 A 
ATOM     15  C10 UNL     1     157.061 151.843 163.766  0.00  0.00    +0.000 A 
ENDBRANCH   9  10
ENDBRANCH   8   9
ENDBRANCH   4   8
BRANCH   7  16
ATOM     16  C13 UNL     1     157.699 159.069 167.349  0.00  0.00    +0.000 C 
BRANCH  16  17
ATOM     17  C14 UNL     1     157.320 158.871 168.746  0.00  0.00    +0.000 A 
ATOM     18  C15 UNL     1     155.992 158.854 169.106  0.00  0.00    +0.000 A 
ATOM     19  C16 UNL     1     155.581 158.673 170.413  0.00  0.00    +0.000 A 
ATOM     20  C17 UNL     1     156.509 158.500 171.406  0.00  0.00    +0.000 A 
ATOM     21  C18 UNL     1     157.844 158.515 171.060  0.00  0.00    +0.000 A 
ATOM     22  C19 UNL     1     158.250 158.697 169.748  0.00  0.00    +0.000 A 
ENDBRANCH  16  17
ENDBRANCH   7  16
TORSDOF 5
ENDMDL
MODEL 9
REMARK VINA RESULT:      -5.5      3.818      5.790
REMARK  Name = ./3D_structures\o26_MMV1579775_3D.pdb
REMARK  5 active torsions:
REMARK  status: ('A' for Active; 'I' for Inactive)
REMARK    1  A    between atoms: C3_4  and  O2_5
REMARK    2  A    between atoms: O2_5  and  C4_6
REMARK    3  A    between atoms: C4_6  and  C5_7
REMARK    4  A    between atoms: N1_15  and  C13_16
REMARK    5  A    between atoms: C13_16  and  C14_17
REMARK                            x       y       z     vdW  Elec       q    Type
REMARK                         _______ _______ _______ _____ _____    ______ ____
ROOT
ATOM      1  O1  UNL     1     158.215 158.292 171.092  0.00  0.00    +0.000 OA
ATOM      2  C1  UNL     1     158.150 158.148 169.835  0.00  0.00    +0.000 A 
ATOM      3  C2  UNL     1     159.238 158.538 169.044  0.00  0.00    +0.000 A 
ATOM      4  C3  UNL     1     159.209 158.399 167.672  0.00  0.00    +0.000 A 
ATOM      5  C11 UNL     1     158.069 157.864 167.117  0.00  0.00    +0.000 A 
ATOM      6  C12 UNL     1     157.006 157.487 167.929  0.00  0.00    +0.000 A 
ATOM      7  N1  UNL     1     157.044 157.628 169.277  0.00  0.00    +0.000 N 
ENDROOT
BRANCH   4   8
ATOM      8  O2  UNL     1     160.256 158.769 166.874  0.00  0.00    +0.000 OA
BRANCH   8   9
ATOM      9  C4  UNL     1     161.566 158.403 167.215  0.00  0.00    +0.000 C 
BRANCH   9  10
ATOM     10  C5  UNL     1     162.036 157.264 166.366  0.00  0.00    +0.000 A 
ATOM     11  C6  UNL     1     161.309 156.818 165.276  0.00  0.00    +0.000 A 
ATOM     12  C7  UNL     1     161.768 155.765 164.512  0.00  0.00    +0.000 A 
ATOM     13  C8  UNL     1     162.951 155.116 164.789  0.00  0.00    +0.000 A 
ATOM     14  C9  UNL     1     163.684 155.558 165.877  0.00  0.00    +0.000 A 
ATOM     15  C10 UNL     1     163.219 156.612 166.637  0.00  0.00    +0.000 A 
ENDBRANCH   9  10
ENDBRANCH   8   9
ENDBRANCH   4   8
BRANCH   7  16
ATOM     16  C13 UNL     1     155.920 157.220 170.054  0.00  0.00    +0.000 C 
BRANCH  16  17
ATOM     17  C14 UNL     1     154.771 158.121 170.040  0.00  0.00    +0.000 A 
ATOM     18  C15 UNL     1     153.640 157.787 169.331  0.00  0.00    +0.000 A 
ATOM     19  C16 UNL     1     152.527 158.606 169.284  0.00  0.00    +0.000 A 
ATOM     20  C17 UNL     1     152.524 159.799 169.959  0.00  0.00    +0.000 A 
ATOM     21  C18 UNL     1     153.651 160.146 170.673  0.00  0.00    +0.000 A 
ATOM     22  C19 UNL     1     154.763 159.322 170.717  0.00  0.00    +0.000 A 
ENDBRANCH  16  17
ENDBRANCH   7  16
TORSDOF 5
ENDMDL
