MODEL 1
REMARK VINA RESULT:      -6.0      0.000      0.000
REMARK  Name = ./3D_structures\o29_MMV1578890_3D.pdb
REMARK  3 active torsions:
REMARK  status: ('A' for Active; 'I' for Inactive)
REMARK    1  A    between atoms: S1_2  and  N1_4
REMARK    2  A    between atoms: S1_2  and  C10_15
REMARK    3  A    between atoms: N1_4  and  C1_5
REMARK                            x       y       z     vdW  Elec       q    Type
REMARK                         _______ _______ _______ _____ _____    ______ ____
ROOT
ATOM      1  N1  UNL     1     156.166 159.725 170.650  0.00  0.00    +0.000 N 
ATOM      2  H1  UNL     1     156.316 160.505 169.937  0.00  0.00    +0.000 HD
ENDROOT
BRANCH   1   3
ATOM      3  C1  UNL     1     155.167 159.945 171.628  0.00  0.00    +0.000 A 
ATOM      4  C2  UNL     1     155.512 160.152 172.945  0.00  0.00    +0.000 A 
ATOM      5  C3  UNL     1     154.533 160.360 173.922  0.00  0.00    +0.000 A 
ATOM      6  C4  UNL     1     153.222 160.347 173.503  0.00  0.00    +0.000 A 
ATOM      7  C5  UNL     1     152.849 160.143 172.195  0.00  0.00    +0.000 A 
ATOM      8  C6  UNL     1     151.528 160.131 171.782  0.00  0.00    +0.000 A 
ATOM      9  C7  UNL     1     151.198 159.922 170.460  0.00  0.00    +0.000 A 
ATOM     10  C8  UNL     1     152.194 159.721 169.527  0.00  0.00    +0.000 A 
ATOM     11  N2  UNL     1     153.463 159.739 169.967  0.00  0.00    +0.000 NA
ATOM     12  C9  UNL     1     153.823 159.939 171.244  0.00  0.00    +0.000 A 
ENDBRANCH   1   3
BRANCH   1  14
ATOM     13  O1  UNL     1     156.265 157.107 171.149  0.00  0.00    +0.000 OA
ATOM     14  S1  UNL     1     157.077 158.283 170.623  0.00  0.00    +0.000 S 
ATOM     15  O2  UNL     1     158.278 158.379 171.520  0.00  0.00    +0.000 OA
BRANCH  14  16
ATOM     16  C10 UNL     1     157.550 157.813 168.983  0.00  0.00    +0.000 A 
ATOM     17  C11 UNL     1     158.684 158.357 168.422  0.00  0.00    +0.000 A 
ATOM     18  C12 UNL     1     159.139 158.067 167.157  0.00  0.00    +0.000 A 
ATOM     19  C13 UNL     1     158.385 157.165 166.420  0.00  0.00    +0.000 A 
ATOM     20  C14 UNL     1     157.243 156.610 166.966  0.00  0.00    +0.000 A 
ATOM     21  C15 UNL     1     156.815 156.923 168.239  0.00  0.00    +0.000 A 
ENDBRANCH  14  16
ENDBRANCH   1  14
TORSDOF 3
ENDMDL
MODEL 2
REMARK VINA RESULT:      -6.0      0.926      2.524
REMARK  Name = ./3D_structures\o29_MMV1578890_3D.pdb
REMARK  3 active torsions:
REMARK  status: ('A' for Active; 'I' for Inactive)
REMARK    1  A    between atoms: S1_2  and  N1_4
REMARK    2  A    between atoms: S1_2  and  C10_15
REMARK    3  A    between atoms: N1_4  and  C1_5
REMARK                            x       y       z     vdW  Elec       q    Type
REMARK                         _______ _______ _______ _____ _____    ______ ____
ROOT
ATOM      1  N1  UNL     1     156.005 159.675 170.496  0.00  0.00    +0.000 N 
ATOM      2  H1  UNL     1     156.441 160.645 170.598  0.00  0.00    +0.000 HD
ENDROOT
BRANCH   1   3
ATOM      3  C1  UNL     1     154.598 159.626 170.356  0.00  0.00    +0.000 A 
ATOM      4  C2  UNL     1     154.027 159.352 169.133  0.00  0.00    +0.000 A 
ATOM      5  C3  UNL     1     152.637 159.312 168.979  0.00  0.00    +0.000 A 
ATOM      6  C4  UNL     1     151.880 159.557 170.102  0.00  0.00    +0.000 A 
ATOM      7  C5  UNL     1     152.423 159.833 171.335  0.00  0.00    +0.000 A 
ATOM      8  C6  UNL     1     151.654 160.079 172.459  0.00  0.00    +0.000 A 
ATOM      9  C7  UNL     1     152.239 160.352 173.676  0.00  0.00    +0.000 A 
ATOM     10  C8  UNL     1     153.614 160.383 173.785  0.00  0.00    +0.000 A 
ATOM     11  N2  UNL     1     154.326 160.139 172.672  0.00  0.00    +0.000 NA
ATOM     12  C9  UNL     1     153.791 159.870 171.471  0.00  0.00    +0.000 A 
ENDBRANCH   1   3
BRANCH   1  14
ATOM     13  O1  UNL     1     156.116 157.043 170.906  0.00  0.00    +0.000 OA
ATOM     14  S1  UNL     1     156.947 158.253 170.500  0.00  0.00    +0.000 S 
ATOM     15  O2  UNL     1     158.058 158.337 171.508  0.00  0.00    +0.000 OA
BRANCH  14  16
ATOM     16  C10 UNL     1     157.577 157.855 168.895  0.00  0.00    +0.000 A 
ATOM     17  C11 UNL     1     156.895 156.961 168.100  0.00  0.00    +0.000 A 
ATOM     18  C12 UNL     1     157.296 156.578 166.842  0.00  0.00    +0.000 A 
ATOM     19  C13 UNL     1     158.471 157.145 166.368  0.00  0.00    +0.000 A 
ATOM     20  C14 UNL     1     159.170 158.043 167.152  0.00  0.00    +0.000 A 
ATOM     21  C15 UNL     1     158.738 158.406 168.410  0.00  0.00    +0.000 A 
ENDBRANCH  14  16
ENDBRANCH   1  14
TORSDOF 3
ENDMDL
MODEL 3
REMARK VINA RESULT:      -5.9      2.798      4.279
REMARK  Name = ./3D_structures\o29_MMV1578890_3D.pdb
REMARK  3 active torsions:
REMARK  status: ('A' for Active; 'I' for Inactive)
REMARK    1  A    between atoms: S1_2  and  N1_4
REMARK    2  A    between atoms: S1_2  and  C10_15
REMARK    3  A    between atoms: N1_4  and  C1_5
REMARK                            x       y       z     vdW  Elec       q    Type
REMARK                         _______ _______ _______ _____ _____    ______ ____
ROOT
ATOM      1  N1  UNL     1     154.878 157.800 169.975  0.00  0.00    +0.000 N 
ATOM      2  H1  UNL     1     154.123 157.159 170.372  0.00  0.00    +0.000 HD
ENDROOT
BRANCH   1   3
ATOM      3  C1  UNL     1     154.899 157.958 168.569  0.00  0.00    +0.000 A 
ATOM      4  C2  UNL     1     155.711 157.166 167.788  0.00  0.00    +0.000 A 
ATOM      5  C3  UNL     1     155.749 157.320 166.399  0.00  0.00    +0.000 A 
ATOM      6  C4  UNL     1     154.941 158.294 165.859  0.00  0.00    +0.000 A 
ATOM      7  C5  UNL     1     154.120 159.100 166.614  0.00  0.00    +0.000 A 
ATOM      8  C6  UNL     1     153.310 160.077 166.062  0.00  0.00    +0.000 A 
ATOM      9  C7  UNL     1     152.503 160.864 166.856  0.00  0.00    +0.000 A 
ATOM     10  C8  UNL     1     152.495 160.679 168.223  0.00  0.00    +0.000 A 
ATOM     11  N2  UNL     1     153.295 159.721 168.719  0.00  0.00    +0.000 NA
ATOM     12  C9  UNL     1     154.093 158.937 167.979  0.00  0.00    +0.000 A 
ENDBRANCH   1   3
BRANCH   1  14
ATOM     13  O1  UNL     1     156.598 157.648 172.007  0.00  0.00    +0.000 OA
ATOM     14  S1  UNL     1     156.007 158.599 170.974  0.00  0.00    +0.000 S 
ATOM     15  O2  UNL     1     155.355 159.698 171.763  0.00  0.00    +0.000 OA
BRANCH  14  16
ATOM     16  C10 UNL     1     157.398 159.210 170.067  0.00  0.00    +0.000 A 
ATOM     17  C11 UNL     1     158.390 158.338 169.677  0.00  0.00    +0.000 A 
ATOM     18  C12 UNL     1     159.514 158.705 168.975  0.00  0.00    +0.000 A 
ATOM     19  C13 UNL     1     159.630 160.049 168.653  0.00  0.00    +0.000 A 
ATOM     20  C14 UNL     1     158.645 160.940 169.037  0.00  0.00    +0.000 A 
ATOM     21  C15 UNL     1     157.530 160.537 169.740  0.00  0.00    +0.000 A 
ENDBRANCH  14  16
ENDBRANCH   1  14
TORSDOF 3
ENDMDL
MODEL 4
REMARK VINA RESULT:      -5.9      2.530      4.041
REMARK  Name = ./3D_structures\o29_MMV1578890_3D.pdb
REMARK  3 active torsions:
REMARK  status: ('A' for Active; 'I' for Inactive)
REMARK    1  A    between atoms: S1_2  and  N1_4
REMARK    2  A    between atoms: S1_2  and  C10_15
REMARK    3  A    between atoms: N1_4  and  C1_5
REMARK                            x       y       z     vdW  Elec       q    Type
REMARK                         _______ _______ _______ _____ _____    ______ ____
ROOT
ATOM      1  N1  UNL     1     155.663 159.523 167.863  0.00  0.00    +0.000 N 
ATOM      2  H1  UNL     1     155.496 160.555 167.647  0.00  0.00    +0.000 HD
ENDROOT
BRANCH   1   3
ATOM      3  C1  UNL     1     156.399 159.233 169.035  0.00  0.00    +0.000 A 
ATOM      4  C2  UNL     1     157.655 158.673 168.952  0.00  0.00    +0.000 A 
ATOM      5  C3  UNL     1     158.388 158.371 170.104  0.00  0.00    +0.000 A 
ATOM      6  C4  UNL     1     157.795 158.660 171.312  0.00  0.00    +0.000 A 
ATOM      7  C5  UNL     1     156.543 159.218 171.425  0.00  0.00    +0.000 A 
ATOM      8  C6  UNL     1     155.954 159.504 172.644  0.00  0.00    +0.000 A 
ATOM      9  C7  UNL     1     154.695 160.063 172.713  0.00  0.00    +0.000 A 
ATOM     10  C8  UNL     1     154.006 160.345 171.552  0.00  0.00    +0.000 A 
ATOM     11  N2  UNL     1     154.611 160.053 170.389  0.00  0.00    +0.000 NA
ATOM     12  C9  UNL     1     155.833 159.509 170.283  0.00  0.00    +0.000 A 
ENDBRANCH   1   3
BRANCH   1  14
ATOM     13  O1  UNL     1     153.920 158.768 165.990  0.00  0.00    +0.000 OA
ATOM     14  S1  UNL     1     155.077 158.279 166.852  0.00  0.00    +0.000 S 
ATOM     15  O2  UNL     1     154.527 157.136 167.657  0.00  0.00    +0.000 OA
BRANCH  14  16
ATOM     16  C10 UNL     1     156.296 157.714 165.701  0.00  0.00    +0.000 A 
ATOM     17  C11 UNL     1     156.570 156.367 165.610  0.00  0.00    +0.000 A 
ATOM     18  C12 UNL     1     157.499 155.819 164.756  0.00  0.00    +0.000 A 
ATOM     19  C13 UNL     1     158.191 156.707 163.945  0.00  0.00    +0.000 A 
ATOM     20  C14 UNL     1     157.931 158.062 164.023  0.00  0.00    +0.000 A 
ATOM     21  C15 UNL     1     156.992 158.577 164.891  0.00  0.00    +0.000 A 
ENDBRANCH  14  16
ENDBRANCH   1  14
TORSDOF 3
ENDMDL
MODEL 5
REMARK VINA RESULT:      -5.9      2.246      6.439
REMARK  Name = ./3D_structures\o29_MMV1578890_3D.pdb
REMARK  3 active torsions:
REMARK  status: ('A' for Active; 'I' for Inactive)
REMARK    1  A    between atoms: S1_2  and  N1_4
REMARK    2  A    between atoms: S1_2  and  C10_15
REMARK    3  A    between atoms: N1_4  and  C1_5
REMARK                            x       y       z     vdW  Elec       q    Type
REMARK                         _______ _______ _______ _____ _____    ______ ____
ROOT
ATOM      1  N1  UNL     1     154.504 157.628 169.847  0.00  0.00    +0.000 N 
ATOM      2  H1  UNL     1     154.173 156.628 170.020  0.00  0.00    +0.000 HD
ENDROOT
BRANCH   1   3
ATOM      3  C1  UNL     1     155.892 157.808 169.639  0.00  0.00    +0.000 A 
ATOM      4  C2  UNL     1     156.702 158.243 170.664  0.00  0.00    +0.000 A 
ATOM      5  C3  UNL     1     158.073 158.436 170.468  0.00  0.00    +0.000 A 
ATOM      6  C4  UNL     1     158.565 158.171 169.210  0.00  0.00    +0.000 A 
ATOM      7  C5  UNL     1     157.780 157.736 168.168  0.00  0.00    +0.000 A 
ATOM      8  C6  UNL     1     158.282 157.472 166.906  0.00  0.00    +0.000 A 
ATOM      9  C7  UNL     1     157.460 157.039 165.888  0.00  0.00    +0.000 A 
ATOM     10  C8  UNL     1     156.112 156.861 166.124  0.00  0.00    +0.000 A 
ATOM     11  N2  UNL     1     155.663 157.128 167.361  0.00  0.00    +0.000 NA
ATOM     12  C9  UNL     1     156.432 157.551 168.375  0.00  0.00    +0.000 A 
ENDBRANCH   1   3
BRANCH   1  14
ATOM     13  O1  UNL     1     152.036 158.518 169.366  0.00  0.00    +0.000 OA
ATOM     14  S1  UNL     1     153.424 158.949 169.820  0.00  0.00    +0.000 S 
ATOM     15  O2  UNL     1     153.865 159.995 168.836  0.00  0.00    +0.000 OA
BRANCH  14  16
ATOM     16  C10 UNL     1     153.180 159.654 171.425  0.00  0.00    +0.000 A 
ATOM     17  C11 UNL     1     151.916 159.675 171.971  0.00  0.00    +0.000 A 
ATOM     18  C12 UNL     1     151.613 160.202 173.206  0.00  0.00    +0.000 A 
ATOM     19  C13 UNL     1     152.670 160.741 173.924  0.00  0.00    +0.000 A 
ATOM     20  C14 UNL     1     153.945 160.729 173.392  0.00  0.00    +0.000 A 
ATOM     21  C15 UNL     1     154.214 160.192 172.151  0.00  0.00    +0.000 A 
ENDBRANCH  14  16
ENDBRANCH   1  14
TORSDOF 3
ENDMDL
MODEL 6
REMARK VINA RESULT:      -5.8      3.800      5.605
REMARK  Name = ./3D_structures\o29_MMV1578890_3D.pdb
REMARK  3 active torsions:
REMARK  status: ('A' for Active; 'I' for Inactive)
REMARK    1  A    between atoms: S1_2  and  N1_4
REMARK    2  A    between atoms: S1_2  and  C10_15
REMARK    3  A    between atoms: N1_4  and  C1_5
REMARK                            x       y       z     vdW  Elec       q    Type
REMARK                         _______ _______ _______ _____ _____    ______ ____
ROOT
ATOM      1  N1  UNL     1     158.206 156.912 166.713  0.00  0.00    +0.000 N 
ATOM      2  H1  UNL     1     158.747 156.017 166.931  0.00  0.00    +0.000 HD
ENDROOT
BRANCH   1   3
ATOM      3  C1  UNL     1     158.408 158.003 167.591  0.00  0.00    +0.000 A 
ATOM      4  C2  UNL     1     159.335 158.977 167.293  0.00  0.00    +0.000 A 
ATOM      5  C3  UNL     1     159.552 160.054 168.158  0.00  0.00    +0.000 A 
ATOM      6  C4  UNL     1     158.799 160.089 169.309  0.00  0.00    +0.000 A 
ATOM      7  C5  UNL     1     157.867 159.130 169.633  0.00  0.00    +0.000 A 
ATOM      8  C6  UNL     1     157.115 159.173 170.793  0.00  0.00    +0.000 A 
ATOM      9  C7  UNL     1     156.191 158.190 171.079  0.00  0.00    +0.000 A 
ATOM     10  C8  UNL     1     156.008 157.144 170.199  0.00  0.00    +0.000 A 
ATOM     11  N2  UNL     1     156.757 157.138 169.084  0.00  0.00    +0.000 NA
ATOM     12  C9  UNL     1     157.665 158.076 168.772  0.00  0.00    +0.000 A 
ENDBRANCH   1   3
BRANCH   1  14
ATOM     13  O1  UNL     1     156.251 155.806 165.276  0.00  0.00    +0.000 OA
ATOM     14  S1  UNL     1     157.150 157.031 165.378  0.00  0.00    +0.000 S 
ATOM     15  O2  UNL     1     157.910 157.084 164.084  0.00  0.00    +0.000 OA
BRANCH  14  16
ATOM     16  C10 UNL     1     156.039 158.402 165.516  0.00  0.00    +0.000 A 
ATOM     17  C11 UNL     1     154.843 158.241 166.181  0.00  0.00    +0.000 A 
ATOM     18  C12 UNL     1     153.906 159.235 166.342  0.00  0.00    +0.000 A 
ATOM     19  C13 UNL     1     154.213 160.470 165.788  0.00  0.00    +0.000 A 
ATOM     20  C14 UNL     1     155.408 160.649 165.117  0.00  0.00    +0.000 A 
ATOM     21  C15 UNL     1     156.325 159.630 164.974  0.00  0.00    +0.000 A 
ENDBRANCH  14  16
ENDBRANCH   1  14
TORSDOF 3
ENDMDL
MODEL 7
REMARK VINA RESULT:      -5.7      3.248      4.298
REMARK  Name = ./3D_structures\o29_MMV1578890_3D.pdb
REMARK  3 active torsions:
REMARK  status: ('A' for Active; 'I' for Inactive)
REMARK    1  A    between atoms: S1_2  and  N1_4
REMARK    2  A    between atoms: S1_2  and  C10_15
REMARK    3  A    between atoms: N1_4  and  C1_5
REMARK                            x       y       z     vdW  Elec       q    Type
REMARK                         _______ _______ _______ _____ _____    ______ ____
ROOT
ATOM      1  N1  UNL     1     156.427 156.794 168.111  0.00  0.00    +0.000 N 
ATOM      2  H1  UNL     1     156.073 155.836 168.422  0.00  0.00    +0.000 HD
ENDROOT
BRANCH   1   3
ATOM      3  C1  UNL     1     156.704 157.730 169.136  0.00  0.00    +0.000 A 
ATOM      4  C2  UNL     1     158.002 157.993 169.511  0.00  0.00    +0.000 A 
ATOM      5  C3  UNL     1     158.287 158.907 170.530  0.00  0.00    +0.000 A 
ATOM      6  C4  UNL     1     157.214 159.523 171.132  0.00  0.00    +0.000 A 
ATOM      7  C5  UNL     1     155.907 159.279 170.779  0.00  0.00    +0.000 A 
ATOM      8  C6  UNL     1     154.833 159.902 171.390  0.00  0.00    +0.000 A 
ATOM      9  C7  UNL     1     153.538 159.627 171.006  0.00  0.00    +0.000 A 
ATOM     10  C8  UNL     1     153.300 158.719 169.996  0.00  0.00    +0.000 A 
ATOM     11  N2  UNL     1     154.368 158.135 169.427  0.00  0.00    +0.000 NA
ATOM     12  C9  UNL     1     155.641 158.377 169.775  0.00  0.00    +0.000 A 
ENDBRANCH   1   3
BRANCH   1  14
ATOM     13  O1  UNL     1     156.147 156.075 165.559  0.00  0.00    +0.000 OA
ATOM     14  S1  UNL     1     156.653 157.188 166.467  0.00  0.00    +0.000 S 
ATOM     15  O2  UNL     1     158.111 157.345 166.139  0.00  0.00    +0.000 OA
BRANCH  14  16
ATOM     16  C10 UNL     1     155.738 158.623 165.984  0.00  0.00    +0.000 A 
ATOM     17  C11 UNL     1     154.385 158.681 166.237  0.00  0.00    +0.000 A 
ATOM     18  C12 UNL     1     153.577 159.743 165.901  0.00  0.00    +0.000 A 
ATOM     19  C13 UNL     1     154.194 160.811 165.265  0.00  0.00    +0.000 A 
ATOM     20  C14 UNL     1     155.550 160.770 165.001  0.00  0.00    +0.000 A 
ATOM     21  C15 UNL     1     156.330 159.689 165.353  0.00  0.00    +0.000 A 
ENDBRANCH  14  16
ENDBRANCH   1  14
TORSDOF 3
ENDMDL
MODEL 8
REMARK VINA RESULT:      -5.7      1.825      6.476
REMARK  Name = ./3D_structures\o29_MMV1578890_3D.pdb
REMARK  3 active torsions:
REMARK  status: ('A' for Active; 'I' for Inactive)
REMARK    1  A    between atoms: S1_2  and  N1_4
REMARK    2  A    between atoms: S1_2  and  C10_15
REMARK    3  A    between atoms: N1_4  and  C1_5
REMARK                            x       y       z     vdW  Elec       q    Type
REMARK                         _______ _______ _______ _____ _____    ______ ____
ROOT
ATOM      1  N1  UNL     1     156.849 159.234 169.232  0.00  0.00    +0.000 N 
ATOM      2  H1  UNL     1     157.448 160.113 169.144  0.00  0.00    +0.000 HD
ENDROOT
BRANCH   1   3
ATOM      3  C1  UNL     1     156.239 158.764 168.045  0.00  0.00    +0.000 A 
ATOM      4  C2  UNL     1     154.886 158.928 167.841  0.00  0.00    +0.000 A 
ATOM      5  C3  UNL     1     154.270 158.458 166.678  0.00  0.00    +0.000 A 
ATOM      6  C4  UNL     1     155.077 157.829 165.757  0.00  0.00    +0.000 A 
ATOM      7  C5  UNL     1     156.429 157.650 165.934  0.00  0.00    +0.000 A 
ATOM      8  C6  UNL     1     157.233 157.015 165.004  0.00  0.00    +0.000 A 
ATOM      9  C7  UNL     1     158.585 156.856 165.221  0.00  0.00    +0.000 A 
ATOM     10  C8  UNL     1     159.154 157.335 166.383  0.00  0.00    +0.000 A 
ATOM     11  N2  UNL     1     158.341 157.945 167.261  0.00  0.00    +0.000 NA
ATOM     12  C9  UNL     1     157.022 158.118 167.084  0.00  0.00    +0.000 A 
ENDBRANCH   1   3
BRANCH   1  14
ATOM     13  O1  UNL     1     157.947 158.296 171.473  0.00  0.00    +0.000 OA
ATOM     14  S1  UNL     1     156.630 158.430 170.721  0.00  0.00    +0.000 S 
ATOM     15  O2  UNL     1     156.136 157.026 170.515  0.00  0.00    +0.000 OA
BRANCH  14  16
ATOM     16  C10 UNL     1     155.566 159.320 171.819  0.00  0.00    +0.000 A 
ATOM     17  C11 UNL     1     154.363 159.804 171.354  0.00  0.00    +0.000 A 
ATOM     18  C12 UNL     1     153.464 160.512 172.118  0.00  0.00    +0.000 A 
ATOM     19  C13 UNL     1     153.819 160.739 173.440  0.00  0.00    +0.000 A 
ATOM     20  C14 UNL     1     155.023 160.262 173.923  0.00  0.00    +0.000 A 
ATOM     21  C15 UNL     1     155.901 159.555 173.130  0.00  0.00    +0.000 A 
ENDBRANCH  14  16
ENDBRANCH   1  14
TORSDOF 3
ENDMDL
MODEL 9
REMARK VINA RESULT:      -5.6      4.320      6.091
REMARK  Name = ./3D_structures\o29_MMV1578890_3D.pdb
REMARK  3 active torsions:
REMARK  status: ('A' for Active; 'I' for Inactive)
REMARK    1  A    between atoms: S1_2  and  N1_4
REMARK    2  A    between atoms: S1_2  and  C10_15
REMARK    3  A    between atoms: N1_4  and  C1_5
REMARK                            x       y       z     vdW  Elec       q    Type
REMARK                         _______ _______ _______ _____ _____    ______ ____
ROOT
ATOM      1  N1  UNL     1     158.353 157.299 166.655  0.00  0.00    +0.000 N 
ATOM      2  H1  UNL     1     159.319 156.864 166.523  0.00  0.00    +0.000 HD
ENDROOT
BRANCH   1   3
ATOM      3  C1  UNL     1     158.131 157.989 167.870  0.00  0.00    +0.000 A 
ATOM      4  C2  UNL     1     157.260 157.485 168.811  0.00  0.00    +0.000 A 
ATOM      5  C3  UNL     1     157.023 158.164 170.011  0.00  0.00    +0.000 A 
ATOM      6  C4  UNL     1     157.699 159.347 170.199  0.00  0.00    +0.000 A 
ATOM      7  C5  UNL     1     158.574 159.874 169.278  0.00  0.00    +0.000 A 
ATOM      8  C6  UNL     1     159.249 161.066 169.476  0.00  0.00    +0.000 A 
ATOM      9  C7  UNL     1     160.118 161.558 168.525  0.00  0.00    +0.000 A 
ATOM     10  C8  UNL     1     160.323 160.857 167.355  0.00  0.00    +0.000 A 
ATOM     11  N2  UNL     1     159.649 159.706 167.200  0.00  0.00    +0.000 NA
ATOM     12  C9  UNL     1     158.797 159.196 168.102  0.00  0.00    +0.000 A 
ENDBRANCH   1   3
BRANCH   1  14
ATOM     13  O1  UNL     1     156.259 155.948 165.704  0.00  0.00    +0.000 OA
ATOM     14  S1  UNL     1     157.132 157.174 165.470  0.00  0.00    +0.000 S 
ATOM     15  O2  UNL     1     157.719 156.996 164.098  0.00  0.00    +0.000 OA
BRANCH  14  16
ATOM     16  C10 UNL     1     156.013 158.544 165.506  0.00  0.00    +0.000 A 
ATOM     17  C11 UNL     1     154.770 158.390 166.080  0.00  0.00    +0.000 A 
ATOM     18  C12 UNL     1     153.823 159.385 166.158  0.00  0.00    +0.000 A 
ATOM     19  C13 UNL     1     154.170 160.613 165.613  0.00  0.00    +0.000 A 
ATOM     20  C14 UNL     1     155.411 160.786 165.032  0.00  0.00    +0.000 A 
ATOM     21  C15 UNL     1     156.338 159.767 164.972  0.00  0.00    +0.000 A 
ENDBRANCH  14  16
ENDBRANCH   1  14
TORSDOF 3
ENDMDL
