MODEL 1
REMARK VINA RESULT:      -6.1      0.000      0.000
REMARK  Name = ./3D_structures\o30_MMV1578886_3D.pdb
REMARK  3 active torsions:
REMARK  status: ('A' for Active; 'I' for Inactive)
REMARK    1  A    between atoms: C1_1  and  C2_2
REMARK    2  A    between atoms: C1_1  and  N1_8
REMARK    3  A    between atoms: C8_9  and  C15_17
REMARK                            x       y       z     vdW  Elec       q    Type
REMARK                         _______ _______ _______ _____ _____    ______ ____
ROOT
ATOM      1  N1  UNL     1     155.450 157.540 169.301  0.00  0.00    +0.000 N 
ATOM      2  C8  UNL     1     154.198 157.837 169.045  0.00  0.00    +0.000 A 
ATOM      3  N2  UNL     1     154.094 157.766 167.666  0.00  0.00    +0.000 NA
ATOM      4  C9  UNL     1     155.255 157.438 167.111  0.00  0.00    +0.000 A 
ATOM      5  C10 UNL     1     155.714 157.237 165.819  0.00  0.00    +0.000 A 
ATOM      6  C11 UNL     1     157.007 156.900 165.528  0.00  0.00    +0.000 A 
ATOM      7  C12 UNL     1     157.890 156.754 166.593  0.00  0.00    +0.000 A 
ATOM      8  C13 UNL     1     157.451 156.950 167.881  0.00  0.00    +0.000 A 
ATOM      9  C14 UNL     1     156.144 157.288 168.135  0.00  0.00    +0.000 A 
ENDROOT
BRANCH   2  10
ATOM     10  C15 UNL     1     153.042 158.209 169.814  0.00  0.00    +0.000 A 
ATOM     11  C16 UNL     1     152.795 159.367 170.477  0.00  0.00    +0.000 A 
ATOM     12  C17 UNL     1     151.611 159.634 171.182  0.00  0.00    +0.000 A 
ATOM     13  C18 UNL     1     150.628 158.683 171.221  0.00  0.00    +0.000 A 
ATOM     14  C19 UNL     1     150.875 157.508 170.551  0.00  0.00    +0.000 A 
ATOM     15  N3  UNL     1     152.005 157.301 169.900  0.00  0.00    +0.000 NA
ENDBRANCH   2  10
BRANCH   1  16
ATOM     16  C1  UNL     1     156.074 157.428 170.571  0.00  0.00    +0.000 C 
BRANCH  16  17
ATOM     17  C2  UNL     1     156.392 158.757 171.146  0.00  0.00    +0.000 A 
ATOM     18  C3  UNL     1     155.942 159.166 172.408  0.00  0.00    +0.000 A 
ATOM     19  C4  UNL     1     156.200 160.386 172.957  0.00  0.00    +0.000 A 
ATOM     20  C5  UNL     1     156.952 161.297 172.246  0.00  0.00    +0.000 A 
ATOM     21  C6  UNL     1     157.417 160.946 171.008  0.00  0.00    +0.000 A 
ATOM     22  C7  UNL     1     157.133 159.695 170.480  0.00  0.00    +0.000 A 
ENDBRANCH  16  17
ENDBRANCH   1  16
TORSDOF 3
ENDMDL
MODEL 2
REMARK VINA RESULT:      -6.1      2.037      4.637
REMARK  Name = ./3D_structures\o30_MMV1578886_3D.pdb
REMARK  3 active torsions:
REMARK  status: ('A' for Active; 'I' for Inactive)
REMARK    1  A    between atoms: C1_1  and  C2_2
REMARK    2  A    between atoms: C1_1  and  N1_8
REMARK    3  A    between atoms: C8_9  and  C15_17
REMARK                            x       y       z     vdW  Elec       q    Type
REMARK                         _______ _______ _______ _____ _____    ______ ____
ROOT
ATOM      1  N1  UNL     1     156.251 157.505 167.853  0.00  0.00    +0.000 N 
ATOM      2  C8  UNL     1     157.022 158.147 168.698  0.00  0.00    +0.000 A 
ATOM      3  N2  UNL     1     158.283 158.103 168.129  0.00  0.00    +0.000 NA
ATOM      4  C9  UNL     1     158.268 157.449 166.973  0.00  0.00    +0.000 A 
ATOM      5  C10 UNL     1     159.208 157.110 166.014  0.00  0.00    +0.000 A 
ATOM      6  C11 UNL     1     158.903 156.402 164.884  0.00  0.00    +0.000 A 
ATOM      7  C12 UNL     1     157.580 156.011 164.705  0.00  0.00    +0.000 A 
ATOM      8  C13 UNL     1     156.634 156.339 165.648  0.00  0.00    +0.000 A 
ATOM      9  C14 UNL     1     156.978 157.052 166.770  0.00  0.00    +0.000 A 
ENDROOT
BRANCH   2  10
ATOM     10  C15 UNL     1     156.854 158.793 169.972  0.00  0.00    +0.000 A 
ATOM     11  C16 UNL     1     156.418 158.266 171.144  0.00  0.00    +0.000 A 
ATOM     12  C17 UNL     1     156.315 158.989 172.343  0.00  0.00    +0.000 A 
ATOM     13  C18 UNL     1     156.668 160.312 172.357  0.00  0.00    +0.000 A 
ATOM     14  C19 UNL     1     157.109 160.849 171.170  0.00  0.00    +0.000 A 
ATOM     15  N3  UNL     1     157.190 160.129 170.067  0.00  0.00    +0.000 NA
ENDBRANCH   2  10
BRANCH   1  16
ATOM     16  C1  UNL     1     154.849 157.299 167.940  0.00  0.00    +0.000 C 
BRANCH  16  17
ATOM     17  C2  UNL     1     154.091 158.506 167.536  0.00  0.00    +0.000 A 
ATOM     18  C3  UNL     1     154.064 158.981 166.219  0.00  0.00    +0.000 A 
ATOM     19  C4  UNL     1     153.394 160.097 165.817  0.00  0.00    +0.000 A 
ATOM     20  C5  UNL     1     152.684 160.826 166.749  0.00  0.00    +0.000 A 
ATOM     21  C6  UNL     1     152.677 160.404 168.050  0.00  0.00    +0.000 A 
ATOM     22  C7  UNL     1     153.373 159.263 168.423  0.00  0.00    +0.000 A 
ENDBRANCH  16  17
ENDBRANCH   1  16
TORSDOF 3
ENDMDL
MODEL 3
REMARK VINA RESULT:      -6.0      2.152      5.280
REMARK  Name = ./3D_structures\o30_MMV1578886_3D.pdb
REMARK  3 active torsions:
REMARK  status: ('A' for Active; 'I' for Inactive)
REMARK    1  A    between atoms: C1_1  and  C2_2
REMARK    2  A    between atoms: C1_1  and  N1_8
REMARK    3  A    between atoms: C8_9  and  C15_17
REMARK                            x       y       z     vdW  Elec       q    Type
REMARK                         _______ _______ _______ _____ _____    ______ ____
ROOT
ATOM      1  N1  UNL     1     154.825 158.090 167.524  0.00  0.00    +0.000 N 
ATOM      2  C8  UNL     1     155.577 158.072 166.450  0.00  0.00    +0.000 A 
ATOM      3  N2  UNL     1     155.072 159.082 165.649  0.00  0.00    +0.000 NA
ATOM      4  C9  UNL     1     154.041 159.687 166.228  0.00  0.00    +0.000 A 
ATOM      5  C10 UNL     1     153.183 160.722 165.893  0.00  0.00    +0.000 A 
ATOM      6  C11 UNL     1     152.171 161.148 166.708  0.00  0.00    +0.000 A 
ATOM      7  C12 UNL     1     152.009 160.501 167.929  0.00  0.00    +0.000 A 
ATOM      8  C13 UNL     1     152.852 159.472 168.277  0.00  0.00    +0.000 A 
ATOM      9  C14 UNL     1     153.859 159.071 167.433  0.00  0.00    +0.000 A 
ENDROOT
BRANCH   2  10
ATOM     10  C15 UNL     1     156.681 157.287 165.968  0.00  0.00    +0.000 A 
ATOM     11  C16 UNL     1     158.012 157.533 166.069  0.00  0.00    +0.000 A 
ATOM     12  C17 UNL     1     159.011 156.678 165.579  0.00  0.00    +0.000 A 
ATOM     13  C18 UNL     1     158.647 155.516 164.954  0.00  0.00    +0.000 A 
ATOM     14  C19 UNL     1     157.300 155.264 164.849  0.00  0.00    +0.000 A 
ATOM     15  N3  UNL     1     156.395 156.098 165.326  0.00  0.00    +0.000 NA
ENDBRANCH   2  10
BRANCH   1  16
ATOM     16  C1  UNL     1     154.947 157.279 168.683  0.00  0.00    +0.000 C 
BRANCH  16  17
ATOM     17  C2  UNL     1     155.835 157.899 169.695  0.00  0.00    +0.000 A 
ATOM     18  C3  UNL     1     155.348 158.591 170.812  0.00  0.00    +0.000 A 
ATOM     19  C4  UNL     1     156.136 159.188 171.750  0.00  0.00    +0.000 A 
ATOM     20  C5  UNL     1     157.506 159.122 171.616  0.00  0.00    +0.000 A 
ATOM     21  C6  UNL     1     158.033 158.458 170.543  0.00  0.00    +0.000 A 
ATOM     22  C7  UNL     1     157.201 157.862 169.607  0.00  0.00    +0.000 A 
ENDBRANCH  16  17
ENDBRANCH   1  16
TORSDOF 3
ENDMDL
MODEL 4
REMARK VINA RESULT:      -5.9      1.527      2.163
REMARK  Name = ./3D_structures\o30_MMV1578886_3D.pdb
REMARK  3 active torsions:
REMARK  status: ('A' for Active; 'I' for Inactive)
REMARK    1  A    between atoms: C1_1  and  C2_2
REMARK    2  A    between atoms: C1_1  and  N1_8
REMARK    3  A    between atoms: C8_9  and  C15_17
REMARK                            x       y       z     vdW  Elec       q    Type
REMARK                         _______ _______ _______ _____ _____    ______ ____
ROOT
ATOM      1  N1  UNL     1     156.339 158.696 167.730  0.00  0.00    +0.000 N 
ATOM      2  C8  UNL     1     155.092 158.292 167.694  0.00  0.00    +0.000 A 
ATOM      3  N2  UNL     1     155.103 157.189 166.856  0.00  0.00    +0.000 NA
ATOM      4  C9  UNL     1     156.326 156.943 166.400  0.00  0.00    +0.000 A 
ATOM      5  C10 UNL     1     156.899 156.003 165.557  0.00  0.00    +0.000 A 
ATOM      6  C11 UNL     1     158.231 155.989 165.249  0.00  0.00    +0.000 A 
ATOM      7  C12 UNL     1     159.036 156.971 165.816  0.00  0.00    +0.000 A 
ATOM      8  C13 UNL     1     158.484 157.911 166.655  0.00  0.00    +0.000 A 
ATOM      9  C14 UNL     1     157.140 157.894 166.943  0.00  0.00    +0.000 A 
ENDROOT
BRANCH   2  10
ATOM     10  C15 UNL     1     153.843 158.726 168.259  0.00  0.00    +0.000 A 
ATOM     11  C16 UNL     1     153.126 158.172 169.269  0.00  0.00    +0.000 A 
ATOM     12  C17 UNL     1     151.921 158.698 169.760  0.00  0.00    +0.000 A 
ATOM     13  C18 UNL     1     151.414 159.840 169.200  0.00  0.00    +0.000 A 
ATOM     14  C19 UNL     1     152.138 160.403 168.175  0.00  0.00    +0.000 A 
ATOM     15  N3  UNL     1     153.268 159.873 167.747  0.00  0.00    +0.000 NA
ENDBRANCH   2  10
BRANCH   1  16
ATOM     16  C1  UNL     1     156.882 159.771 168.482  0.00  0.00    +0.000 C 
BRANCH  16  17
ATOM     17  C2  UNL     1     156.542 159.661 169.921  0.00  0.00    +0.000 A 
ATOM     18  C3  UNL     1     156.896 158.554 170.702  0.00  0.00    +0.000 A 
ATOM     19  C4  UNL     1     156.583 158.413 172.021  0.00  0.00    +0.000 A 
ATOM     20  C5  UNL     1     155.872 159.411 172.653  0.00  0.00    +0.000 A 
ATOM     21  C6  UNL     1     155.503 160.515 171.934  0.00  0.00    +0.000 A 
ATOM     22  C7  UNL     1     155.838 160.624 170.592  0.00  0.00    +0.000 A 
ENDBRANCH  16  17
ENDBRANCH   1  16
TORSDOF 3
ENDMDL
MODEL 5
REMARK VINA RESULT:      -5.8      3.007      6.181
REMARK  Name = ./3D_structures\o30_MMV1578886_3D.pdb
REMARK  3 active torsions:
REMARK  status: ('A' for Active; 'I' for Inactive)
REMARK    1  A    between atoms: C1_1  and  C2_2
REMARK    2  A    between atoms: C1_1  and  N1_8
REMARK    3  A    between atoms: C8_9  and  C15_17
REMARK                            x       y       z     vdW  Elec       q    Type
REMARK                         _______ _______ _______ _____ _____    ______ ____
ROOT
ATOM      1  N1  UNL     1     156.487 157.796 166.486  0.00  0.00    +0.000 N 
ATOM      2  C8  UNL     1     157.477 158.005 165.652  0.00  0.00    +0.000 A 
ATOM      3  N2  UNL     1     157.073 159.089 164.891  0.00  0.00    +0.000 NA
ATOM      4  C9  UNL     1     155.871 159.515 165.259  0.00  0.00    +0.000 A 
ATOM      5  C10 UNL     1     155.010 160.524 164.855  0.00  0.00    +0.000 A 
ATOM      6  C11 UNL     1     153.787 160.738 165.429  0.00  0.00    +0.000 A 
ATOM      7  C12 UNL     1     153.405 159.895 166.467  0.00  0.00    +0.000 A 
ATOM      8  C13 UNL     1     154.247 158.889 166.881  0.00  0.00    +0.000 A 
ATOM      9  C14 UNL     1     155.469 158.704 166.280  0.00  0.00    +0.000 A 
ENDROOT
BRANCH   2  10
ATOM     10  C15 UNL     1     158.747 157.391 165.373  0.00  0.00    +0.000 A 
ATOM     11  C16 UNL     1     159.976 157.718 165.847  0.00  0.00    +0.000 A 
ATOM     12  C17 UNL     1     161.155 157.029 165.523  0.00  0.00    +0.000 A 
ATOM     13  C18 UNL     1     161.089 155.956 164.675  0.00  0.00    +0.000 A 
ATOM     14  C19 UNL     1     159.846 155.623 164.192  0.00  0.00    +0.000 A 
ATOM     15  N3  UNL     1     158.763 156.301 164.525  0.00  0.00    +0.000 NA
ENDBRANCH   2  10
BRANCH   1  16
ATOM     16  C1  UNL     1     156.412 156.823 167.518  0.00  0.00    +0.000 C 
BRANCH  16  17
ATOM     17  C2  UNL     1     156.763 157.395 168.839  0.00  0.00    +0.000 A 
ATOM     18  C3  UNL     1     157.981 158.040 169.088  0.00  0.00    +0.000 A 
ATOM     19  C4  UNL     1     158.343 158.561 170.294  0.00  0.00    +0.000 A 
ATOM     20  C5  UNL     1     157.470 158.460 171.358  0.00  0.00    +0.000 A 
ATOM     21  C6  UNL     1     156.267 157.840 171.167  0.00  0.00    +0.000 A 
ATOM     22  C7  UNL     1     155.932 157.321 169.925  0.00  0.00    +0.000 A 
ENDBRANCH  16  17
ENDBRANCH   1  16
TORSDOF 3
ENDMDL
MODEL 6
REMARK VINA RESULT:      -5.8      2.206      6.271
REMARK  Name = ./3D_structures\o30_MMV1578886_3D.pdb
REMARK  3 active torsions:
REMARK  status: ('A' for Active; 'I' for Inactive)
REMARK    1  A    between atoms: C1_1  and  C2_2
REMARK    2  A    between atoms: C1_1  and  N1_8
REMARK    3  A    between atoms: C8_9  and  C15_17
REMARK                            x       y       z     vdW  Elec       q    Type
REMARK                         _______ _______ _______ _____ _____    ______ ____
ROOT
ATOM      1  N1  UNL     1     155.583 158.157 168.839  0.00  0.00    +0.000 N 
ATOM      2  C8  UNL     1     156.795 157.863 168.436  0.00  0.00    +0.000 A 
ATOM      3  N2  UNL     1     157.622 158.297 169.459  0.00  0.00    +0.000 NA
ATOM      4  C9  UNL     1     156.920 158.840 170.447  0.00  0.00    +0.000 A 
ATOM      5  C10 UNL     1     157.217 159.421 171.670  0.00  0.00    +0.000 A 
ATOM      6  C11 UNL     1     156.262 159.918 172.514  0.00  0.00    +0.000 A 
ATOM      7  C12 UNL     1     154.934 159.828 172.110  0.00  0.00    +0.000 A 
ATOM      8  C13 UNL     1     154.622 159.254 170.899  0.00  0.00    +0.000 A 
ATOM      9  C14 UNL     1     155.609 158.765 170.078  0.00  0.00    +0.000 A 
ENDROOT
BRANCH   2  10
ATOM     10  C15 UNL     1     157.386 157.273 167.266  0.00  0.00    +0.000 A 
ATOM     11  C16 UNL     1     156.837 156.405 166.379  0.00  0.00    +0.000 A 
ATOM     12  C17 UNL     1     157.504 155.907 165.248  0.00  0.00    +0.000 A 
ATOM     13  C18 UNL     1     158.790 156.306 165.002  0.00  0.00    +0.000 A 
ATOM     14  C19 UNL     1     159.350 157.184 165.900  0.00  0.00    +0.000 A 
ATOM     15  N3  UNL     1     158.683 157.626 166.950  0.00  0.00    +0.000 NA
ENDBRANCH   2  10
BRANCH   1  16
ATOM     16  C1  UNL     1     154.357 157.881 168.177  0.00  0.00    +0.000 C 
BRANCH  16  17
ATOM     17  C2  UNL     1     153.912 159.027 167.348  0.00  0.00    +0.000 A 
ATOM     18  C3  UNL     1     152.921 159.925 167.764  0.00  0.00    +0.000 A 
ATOM     19  C4  UNL     1     152.476 160.976 167.020  0.00  0.00    +0.000 A 
ATOM     20  C5  UNL     1     153.020 161.194 165.771  0.00  0.00    +0.000 A 
ATOM     21  C6  UNL     1     153.993 160.345 165.319  0.00  0.00    +0.000 A 
ATOM     22  C7  UNL     1     154.420 159.284 166.104  0.00  0.00    +0.000 A 
ENDBRANCH  16  17
ENDBRANCH   1  16
TORSDOF 3
ENDMDL
MODEL 7
REMARK VINA RESULT:      -5.8     12.819     15.187
REMARK  Name = ./3D_structures\o30_MMV1578886_3D.pdb
REMARK  3 active torsions:
REMARK  status: ('A' for Active; 'I' for Inactive)
REMARK    1  A    between atoms: C1_1  and  C2_2
REMARK    2  A    between atoms: C1_1  and  N1_8
REMARK    3  A    between atoms: C8_9  and  C15_17
REMARK                            x       y       z     vdW  Elec       q    Type
REMARK                         _______ _______ _______ _____ _____    ______ ____
ROOT
ATOM      1  N1  UNL     1     161.912 146.591 169.180  0.00  0.00    +0.000 N 
ATOM      2  C8  UNL     1     162.437 145.594 168.510  0.00  0.00    +0.000 A 
ATOM      3  N2  UNL     1     163.497 146.155 167.817  0.00  0.00    +0.000 NA
ATOM      4  C9  UNL     1     163.602 147.455 168.066  0.00  0.00    +0.000 A 
ATOM      5  C10 UNL     1     164.444 148.478 167.659  0.00  0.00    +0.000 A 
ATOM      6  C11 UNL     1     164.312 149.770 168.086  0.00  0.00    +0.000 A 
ATOM      7  C12 UNL     1     163.279 150.055 168.973  0.00  0.00    +0.000 A 
ATOM      8  C13 UNL     1     162.434 149.052 169.388  0.00  0.00    +0.000 A 
ATOM      9  C14 UNL     1     162.597 147.764 168.937  0.00  0.00    +0.000 A 
ENDROOT
BRANCH   2  10
ATOM     10  C15 UNL     1     162.154 144.195 168.338  0.00  0.00    +0.000 A 
ATOM     11  C16 UNL     1     161.507 143.575 167.319  0.00  0.00    +0.000 A 
ATOM     12  C17 UNL     1     161.306 142.188 167.242  0.00  0.00    +0.000 A 
ATOM     13  C18 UNL     1     161.781 141.387 168.246  0.00  0.00    +0.000 A 
ATOM     14  C19 UNL     1     162.436 142.013 169.280  0.00  0.00    +0.000 A 
ATOM     15  N3  UNL     1     162.602 143.322 169.309  0.00  0.00    +0.000 NA
ENDBRANCH   2  10
BRANCH   1  16
ATOM     16  C1  UNL     1     160.820 146.548 170.088  0.00  0.00    +0.000 C 
BRANCH  16  17
ATOM     17  C2  UNL     1     161.228 146.023 171.413  0.00  0.00    +0.000 A 
ATOM     18  C3  UNL     1     162.063 146.731 172.286  0.00  0.00    +0.000 A 
ATOM     19  C4  UNL     1     162.471 146.270 173.501  0.00  0.00    +0.000 A 
ATOM     20  C5  UNL     1     162.049 145.027 173.925  0.00  0.00    +0.000 A 
ATOM     21  C6  UNL     1     161.231 144.295 173.108  0.00  0.00    +0.000 A 
ATOM     22  C7  UNL     1     160.837 144.796 171.876  0.00  0.00    +0.000 A 
ENDBRANCH  16  17
ENDBRANCH   1  16
TORSDOF 3
ENDMDL
MODEL 8
REMARK VINA RESULT:      -5.5      2.448      6.439
REMARK  Name = ./3D_structures\o30_MMV1578886_3D.pdb
REMARK  3 active torsions:
REMARK  status: ('A' for Active; 'I' for Inactive)
REMARK    1  A    between atoms: C1_1  and  C2_2
REMARK    2  A    between atoms: C1_1  and  N1_8
REMARK    3  A    between atoms: C8_9  and  C15_17
REMARK                            x       y       z     vdW  Elec       q    Type
REMARK                         _______ _______ _______ _____ _____    ______ ____
ROOT
ATOM      1  N1  UNL     1     154.310 159.106 170.158  0.00  0.00    +0.000 N 
ATOM      2  C8  UNL     1     155.537 159.473 170.439  0.00  0.00    +0.000 A 
ATOM      3  N2  UNL     1     155.433 160.164 171.635  0.00  0.00    +0.000 NA
ATOM      4  C9  UNL     1     154.175 160.211 172.056  0.00  0.00    +0.000 A 
ATOM      5  C10 UNL     1     153.515 160.754 173.147  0.00  0.00    +0.000 A 
ATOM      6  C11 UNL     1     152.164 160.650 173.332  0.00  0.00    +0.000 A 
ATOM      7  C12 UNL     1     151.432 159.963 172.370  0.00  0.00    +0.000 A 
ATOM      8  C13 UNL     1     152.071 159.417 171.281  0.00  0.00    +0.000 A 
ATOM      9  C14 UNL     1     153.431 159.541 171.129  0.00  0.00    +0.000 A 
ENDROOT
BRANCH   2  10
ATOM     10  C15 UNL     1     156.827 159.347 169.816  0.00  0.00    +0.000 A 
ATOM     11  C16 UNL     1     157.782 158.404 170.014  0.00  0.00    +0.000 A 
ATOM     12  C17 UNL     1     159.005 158.365 169.328  0.00  0.00    +0.000 A 
ATOM     13  C18 UNL     1     159.278 159.328 168.394  0.00  0.00    +0.000 A 
ATOM     14  C19 UNL     1     158.313 160.286 168.191  0.00  0.00    +0.000 A 
ATOM     15  N3  UNL     1     157.176 160.283 168.861  0.00  0.00    +0.000 NA
ENDBRANCH   2  10
BRANCH   1  16
ATOM     16  C1  UNL     1     153.867 158.330 169.054  0.00  0.00    +0.000 C 
BRANCH  16  17
ATOM     17  C2  UNL     1     153.779 159.138 167.815  0.00  0.00    +0.000 A 
ATOM     18  C3  UNL     1     152.835 160.157 167.637  0.00  0.00    +0.000 A 
ATOM     19  C4  UNL     1     152.716 160.905 166.504  0.00  0.00    +0.000 A 
ATOM     20  C5  UNL     1     153.569 160.665 165.448  0.00  0.00    +0.000 A 
ATOM     21  C6  UNL     1     154.510 159.680 165.571  0.00  0.00    +0.000 A 
ATOM     22  C7  UNL     1     154.602 158.937 166.739  0.00  0.00    +0.000 A 
ENDBRANCH  16  17
ENDBRANCH   1  16
TORSDOF 3
ENDMDL
MODEL 9
REMARK VINA RESULT:      -5.5      2.082      2.818
REMARK  Name = ./3D_structures\o30_MMV1578886_3D.pdb
REMARK  3 active torsions:
REMARK  status: ('A' for Active; 'I' for Inactive)
REMARK    1  A    between atoms: C1_1  and  C2_2
REMARK    2  A    between atoms: C1_1  and  N1_8
REMARK    3  A    between atoms: C8_9  and  C15_17
REMARK                            x       y       z     vdW  Elec       q    Type
REMARK                         _______ _______ _______ _____ _____    ______ ____
ROOT
ATOM      1  N1  UNL     1     154.222 158.607 167.888  0.00  0.00    +0.000 N 
ATOM      2  C8  UNL     1     153.126 159.118 168.395  0.00  0.00    +0.000 A 
ATOM      3  N2  UNL     1     152.818 160.183 167.566  0.00  0.00    +0.000 NA
ATOM      4  C9  UNL     1     153.709 160.307 166.589  0.00  0.00    +0.000 A 
ATOM      5  C10 UNL     1     153.891 161.166 165.517  0.00  0.00    +0.000 A 
ATOM      6  C11 UNL     1     154.937 161.059 164.643  0.00  0.00    +0.000 A 
ATOM      7  C12 UNL     1     155.853 160.034 164.853  0.00  0.00    +0.000 A 
ATOM      8  C13 UNL     1     155.686 159.172 165.912  0.00  0.00    +0.000 A 
ATOM      9  C14 UNL     1     154.622 159.310 166.770  0.00  0.00    +0.000 A 
ENDROOT
BRANCH   2  10
ATOM     10  C15 UNL     1     152.283 158.851 169.529  0.00  0.00    +0.000 A 
ATOM     11  C16 UNL     1     151.565 157.735 169.814  0.00  0.00    +0.000 A 
ATOM     12  C17 UNL     1     150.789 157.572 170.972  0.00  0.00    +0.000 A 
ATOM     13  C18 UNL     1     150.734 158.589 171.888  0.00  0.00    +0.000 A 
ATOM     14  C19 UNL     1     151.460 159.721 171.601  0.00  0.00    +0.000 A 
ATOM     15  N3  UNL     1     152.177 159.829 170.498  0.00  0.00    +0.000 NA
ENDBRANCH   2  10
BRANCH   1  16
ATOM     16  C1  UNL     1     154.935 157.464 168.337  0.00  0.00    +0.000 C 
BRANCH  16  17
ATOM     17  C2  UNL     1     155.987 157.824 169.318  0.00  0.00    +0.000 A 
ATOM     18  C3  UNL     1     155.712 158.083 170.666  0.00  0.00    +0.000 A 
ATOM     19  C4  UNL     1     156.652 158.434 171.588  0.00  0.00    +0.000 A 
ATOM     20  C5  UNL     1     157.969 158.548 171.195  0.00  0.00    +0.000 A 
ATOM     21  C6  UNL     1     158.291 158.304 169.888  0.00  0.00    +0.000 A 
ATOM     22  C7  UNL     1     157.307 157.950 168.976  0.00  0.00    +0.000 A 
ENDBRANCH  16  17
ENDBRANCH   1  16
TORSDOF 3
ENDMDL
