MODEL 1
REMARK VINA RESULT:      -6.6      0.000      0.000
REMARK  Name = ./3D_structures\o31_MMV1578573_3D.pdb
REMARK  5 active torsions:
REMARK  status: ('A' for Active; 'I' for Inactive)
REMARK    1  A    between atoms: C1_1  and  O1_2
REMARK    2  A    between atoms: O1_2  and  C2_3
REMARK    3  A    between atoms: C5_6  and  S1_7
REMARK    4  A    between atoms: S1_7  and  C6_8
REMARK    5  A    between atoms: C6_8  and  C7_9
REMARK                            x       y       z     vdW  Elec       q    Type
REMARK                         _______ _______ _______ _____ _____    ______ ____
ROOT
ATOM      1  C7  UNL     1     150.420 162.588 168.840  0.00  0.00    +0.000 C 
ATOM      2  O2  UNL     1     149.502 161.821 169.432  0.00  0.00    +0.000 OA
ATOM      3  N1  UNL     1     149.909 163.671 168.120  0.00  0.00    +0.000 N 
ATOM      4  C8  UNL     1     148.537 164.057 168.460  0.00  0.00    +0.000 A 
ATOM      5  C9  UNL     1     147.942 163.577 169.621  0.00  0.00    +0.000 A 
ATOM      6  C10 UNL     1     146.681 163.964 170.045  0.00  0.00    +0.000 A 
ATOM      7  C11 UNL     1     145.950 164.866 169.314  0.00  0.00    +0.000 A 
ATOM      8  C12 UNL     1     146.543 165.340 168.166  0.00  0.00    +0.000 A 
ATOM      9  C13 UNL     1     147.787 164.949 167.759  0.00  0.00    +0.000 A 
ATOM     10  S2  UNL     1     148.393 165.686 166.276  0.00  0.00    +0.000 S 
ATOM     11  C14 UNL     1     150.080 165.161 166.126  0.00  0.00    +0.000 A 
ATOM     12  C15 UNL     1     150.791 165.699 165.084  0.00  0.00    +0.000 A 
ATOM     13  C16 UNL     1     152.093 165.351 164.815  0.00  0.00    +0.000 A 
ATOM     14  C17 UNL     1     152.631 164.426 165.666  0.00  0.00    +0.000 A 
ATOM     15  C18 UNL     1     151.899 163.882 166.729  0.00  0.00    +0.000 A 
ATOM     16  C19 UNL     1     150.591 164.236 166.996  0.00  0.00    +0.000 A 
ENDROOT
BRANCH   1  17
ATOM     17  C6  UNL     1     151.727 162.046 169.151  0.00  0.00    +0.000 C 
BRANCH  17  18
ATOM     18  S1  UNL     1     151.762 160.322 169.698  0.00  0.00    +0.000 S 
BRANCH  18  22
ATOM     19  C2  UNL     1     154.632 157.748 167.324  0.00  0.00    +0.000 A 
ATOM     20  C3  UNL     1     154.186 158.930 166.790  0.00  0.00    +0.000 A 
ATOM     21  C4  UNL     1     153.300 159.718 167.533  0.00  0.00    +0.000 A 
ATOM     22  C5  UNL     1     152.875 159.326 168.776  0.00  0.00    +0.000 A 
ATOM     23  C20 UNL     1     153.328 158.143 169.300  0.00  0.00    +0.000 A 
ATOM     24  C21 UNL     1     154.209 157.351 168.571  0.00  0.00    +0.000 A 
BRANCH  19  26
ATOM     25  C1  UNL     1     156.911 157.017 166.763  0.00  0.00    +0.000 C 
ATOM     26  O1  UNL     1     155.510 156.970 166.584  0.00  0.00    +0.000 OA
ENDBRANCH  19  26
ENDBRANCH  18  22
ENDBRANCH  17  18
ENDBRANCH   1  17
TORSDOF 4
ENDMDL
MODEL 2
REMARK VINA RESULT:      -6.4      6.351      8.706
REMARK  Name = ./3D_structures\o31_MMV1578573_3D.pdb
REMARK  5 active torsions:
REMARK  status: ('A' for Active; 'I' for Inactive)
REMARK    1  A    between atoms: C1_1  and  O1_2
REMARK    2  A    between atoms: O1_2  and  C2_3
REMARK    3  A    between atoms: C5_6  and  S1_7
REMARK    4  A    between atoms: S1_7  and  C6_8
REMARK    5  A    between atoms: C6_8  and  C7_9
REMARK                            x       y       z     vdW  Elec       q    Type
REMARK                         _______ _______ _______ _____ _____    ______ ____
ROOT
ATOM      1  C7  UNL     1     157.873 158.649 169.940  0.00  0.00    +0.000 C 
ATOM      2  O2  UNL     1     158.217 158.331 171.189  0.00  0.00    +0.000 OA
ATOM      3  N1  UNL     1     156.539 159.036 169.776  0.00  0.00    +0.000 N 
ATOM      4  C8  UNL     1     155.852 159.446 171.003  0.00  0.00    +0.000 A 
ATOM      5  C9  UNL     1     156.580 159.724 172.154  0.00  0.00    +0.000 A 
ATOM      6  C10 UNL     1     156.004 160.194 173.324  0.00  0.00    +0.000 A 
ATOM      7  C11 UNL     1     154.651 160.413 173.391  0.00  0.00    +0.000 A 
ATOM      8  C12 UNL     1     153.934 160.140 172.248  0.00  0.00    +0.000 A 
ATOM      9  C13 UNL     1     154.516 159.675 171.102  0.00  0.00    +0.000 A 
ATOM     10  S2  UNL     1     153.438 159.409 169.731  0.00  0.00    +0.000 S 
ATOM     11  C14 UNL     1     154.489 159.026 168.355  0.00  0.00    +0.000 A 
ATOM     12  C15 UNL     1     153.867 158.876 167.142  0.00  0.00    +0.000 A 
ATOM     13  C16 UNL     1     154.545 158.533 165.997  0.00  0.00    +0.000 A 
ATOM     14  C17 UNL     1     155.891 158.353 166.155  0.00  0.00    +0.000 A 
ATOM     15  C18 UNL     1     156.520 158.510 167.397  0.00  0.00    +0.000 A 
ATOM     16  C19 UNL     1     155.834 158.855 168.545  0.00  0.00    +0.000 A 
ENDROOT
BRANCH   1  17
ATOM     17  C6  UNL     1     159.043 158.504 169.099  0.00  0.00    +0.000 C 
BRANCH  17  18
ATOM     18  S1  UNL     1     159.530 159.968 168.156  0.00  0.00    +0.000 S 
BRANCH  18  22
ATOM     19  C2  UNL     1     160.358 163.579 170.759  0.00  0.00    +0.000 A 
ATOM     20  C3  UNL     1     159.088 163.064 170.703  0.00  0.00    +0.000 A 
ATOM     21  C4  UNL     1     158.844 161.948 169.897  0.00  0.00    +0.000 A 
ATOM     22  C5  UNL     1     159.849 161.368 169.167  0.00  0.00    +0.000 A 
ATOM     23  C20 UNL     1     161.115 161.890 169.229  0.00  0.00    +0.000 A 
ATOM     24  C21 UNL     1     161.370 163.001 170.029  0.00  0.00    +0.000 A 
BRANCH  19  26
ATOM     25  C1  UNL     1     161.885 165.027 172.029  0.00  0.00    +0.000 C 
ATOM     26  O1  UNL     1     160.596 164.686 171.559  0.00  0.00    +0.000 OA
ENDBRANCH  19  26
ENDBRANCH  18  22
ENDBRANCH  17  18
ENDBRANCH   1  17
TORSDOF 4
ENDMDL
MODEL 3
REMARK VINA RESULT:      -6.4      4.905      8.160
REMARK  Name = ./3D_structures\o31_MMV1578573_3D.pdb
REMARK  5 active torsions:
REMARK  status: ('A' for Active; 'I' for Inactive)
REMARK    1  A    between atoms: C1_1  and  O1_2
REMARK    2  A    between atoms: O1_2  and  C2_3
REMARK    3  A    between atoms: C5_6  and  S1_7
REMARK    4  A    between atoms: S1_7  and  C6_8
REMARK    5  A    between atoms: C6_8  and  C7_9
REMARK                            x       y       z     vdW  Elec       q    Type
REMARK                         _______ _______ _______ _____ _____    ______ ____
ROOT
ATOM      1  C7  UNL     1     157.038 157.955 168.882  0.00  0.00    +0.000 C 
ATOM      2  O2  UNL     1     158.351 157.941 169.119  0.00  0.00    +0.000 OA
ATOM      3  N1  UNL     1     156.357 159.059 169.403  0.00  0.00    +0.000 N 
ATOM      4  C8  UNL     1     157.197 160.212 169.736  0.00  0.00    +0.000 A 
ATOM      5  C9  UNL     1     158.502 160.288 169.264  0.00  0.00    +0.000 A 
ATOM      6  C10 UNL     1     159.324 161.384 169.471  0.00  0.00    +0.000 A 
ATOM      7  C11 UNL     1     158.865 162.472 170.170  0.00  0.00    +0.000 A 
ATOM      8  C12 UNL     1     157.572 162.395 170.634  0.00  0.00    +0.000 A 
ATOM      9  C13 UNL     1     156.773 161.306 170.423  0.00  0.00    +0.000 A 
ATOM     10  S2  UNL     1     155.135 161.401 171.070  0.00  0.00    +0.000 S 
ATOM     11  C14 UNL     1     154.288 159.967 170.462  0.00  0.00    +0.000 A 
ATOM     12  C15 UNL     1     152.953 159.880 170.762  0.00  0.00    +0.000 A 
ATOM     13  C16 UNL     1     152.178 158.805 170.398  0.00  0.00    +0.000 A 
ATOM     14  C17 UNL     1     152.839 157.824 169.711  0.00  0.00    +0.000 A 
ATOM     15  C18 UNL     1     154.203 157.920 169.408  0.00  0.00    +0.000 A 
ATOM     16  C19 UNL     1     154.977 159.003 169.775  0.00  0.00    +0.000 A 
ENDROOT
BRANCH   1  17
ATOM     17  C6  UNL     1     156.707 156.775 168.110  0.00  0.00    +0.000 C 
BRANCH  17  18
ATOM     18  S1  UNL     1     156.537 157.016 166.326  0.00  0.00    +0.000 S 
BRANCH  18  22
ATOM     19  C2  UNL     1     154.301 160.801 165.244  0.00  0.00    +0.000 A 
ATOM     20  C3  UNL     1     155.644 160.712 164.979  0.00  0.00    +0.000 A 
ATOM     21  C4  UNL     1     156.324 159.537 165.317  0.00  0.00    +0.000 A 
ATOM     22  C5  UNL     1     155.672 158.484 165.904  0.00  0.00    +0.000 A 
ATOM     23  C20 UNL     1     154.330 158.583 166.164  0.00  0.00    +0.000 A 
ATOM     24  C21 UNL     1     153.642 159.747 165.833  0.00  0.00    +0.000 A 
BRANCH  19  26
ATOM     25  C1  UNL     1     152.251 161.993 164.597  0.00  0.00    +0.000 C 
ATOM     26  O1  UNL     1     153.630 161.967 164.909  0.00  0.00    +0.000 OA
ENDBRANCH  19  26
ENDBRANCH  18  22
ENDBRANCH  17  18
ENDBRANCH   1  17
TORSDOF 4
ENDMDL
MODEL 4
REMARK VINA RESULT:      -6.3      2.718      4.417
REMARK  Name = ./3D_structures\o31_MMV1578573_3D.pdb
REMARK  5 active torsions:
REMARK  status: ('A' for Active; 'I' for Inactive)
REMARK    1  A    between atoms: C1_1  and  O1_2
REMARK    2  A    between atoms: O1_2  and  C2_3
REMARK    3  A    between atoms: C5_6  and  S1_7
REMARK    4  A    between atoms: S1_7  and  C6_8
REMARK    5  A    between atoms: C6_8  and  C7_9
REMARK                            x       y       z     vdW  Elec       q    Type
REMARK                         _______ _______ _______ _____ _____    ______ ____
ROOT
ATOM      1  C7  UNL     1     149.340 164.948 167.027  0.00  0.00    +0.000 C 
ATOM      2  O2  UNL     1     149.166 166.263 167.175  0.00  0.00    +0.000 OA
ATOM      3  N1  UNL     1     148.159 164.204 166.933  0.00  0.00    +0.000 N 
ATOM      4  C8  UNL     1     146.963 164.973 166.582  0.00  0.00    +0.000 A 
ATOM      5  C9  UNL     1     147.081 166.262 166.078  0.00  0.00    +0.000 A 
ATOM      6  C10 UNL     1     145.999 167.014 165.649  0.00  0.00    +0.000 A 
ATOM      7  C11 UNL     1     144.729 166.497 165.706  0.00  0.00    +0.000 A 
ATOM      8  C12 UNL     1     144.616 165.218 166.203  0.00  0.00    +0.000 A 
ATOM      9  C13 UNL     1     145.693 164.489 166.623  0.00  0.00    +0.000 A 
ATOM     10  S2  UNL     1     145.354 162.858 167.204  0.00  0.00    +0.000 S 
ATOM     11  C14 UNL     1     146.934 162.097 167.465  0.00  0.00    +0.000 A 
ATOM     12  C15 UNL     1     146.916 160.775 167.829  0.00  0.00    +0.000 A 
ATOM     13  C16 UNL     1     148.059 160.066 168.110  0.00  0.00    +0.000 A 
ATOM     14  C17 UNL     1     149.221 160.779 167.999  0.00  0.00    +0.000 A 
ATOM     15  C18 UNL     1     149.232 162.129 167.626  0.00  0.00    +0.000 A 
ATOM     16  C19 UNL     1     148.080 162.836 167.344  0.00  0.00    +0.000 A 
ENDROOT
BRANCH   1  17
ATOM     17  C6  UNL     1     150.763 164.682 166.993  0.00  0.00    +0.000 C 
BRANCH  17  18
ATOM     18  S1  UNL     1     151.465 164.321 165.365  0.00  0.00    +0.000 S 
BRANCH  18  22
ATOM     19  C2  UNL     1     154.177 160.697 165.355  0.00  0.00    +0.000 A 
ATOM     20  C3  UNL     1     152.818 160.522 165.393  0.00  0.00    +0.000 A 
ATOM     21  C4  UNL     1     151.989 161.649 165.394  0.00  0.00    +0.000 A 
ATOM     22  C5  UNL     1     152.515 162.915 165.360  0.00  0.00    +0.000 A 
ATOM     23  C20 UNL     1     153.875 163.078 165.322  0.00  0.00    +0.000 A 
ATOM     24  C21 UNL     1     154.710 161.964 165.320  0.00  0.00    +0.000 A 
BRANCH  19  26
ATOM     25  C1  UNL     1     154.696 158.410 166.094  0.00  0.00    +0.000 C 
ATOM     26  O1  UNL     1     154.996 159.577 165.354  0.00  0.00    +0.000 OA
ENDBRANCH  19  26
ENDBRANCH  18  22
ENDBRANCH  17  18
ENDBRANCH   1  17
TORSDOF 4
ENDMDL
MODEL 5
REMARK VINA RESULT:      -6.3      2.562      3.915
REMARK  Name = ./3D_structures\o31_MMV1578573_3D.pdb
REMARK  5 active torsions:
REMARK  status: ('A' for Active; 'I' for Inactive)
REMARK    1  A    between atoms: C1_1  and  O1_2
REMARK    2  A    between atoms: O1_2  and  C2_3
REMARK    3  A    between atoms: C5_6  and  S1_7
REMARK    4  A    between atoms: S1_7  and  C6_8
REMARK    5  A    between atoms: C6_8  and  C7_9
REMARK                            x       y       z     vdW  Elec       q    Type
REMARK                         _______ _______ _______ _____ _____    ______ ____
ROOT
ATOM      1  C7  UNL     1     149.571 163.611 167.758  0.00  0.00    +0.000 C 
ATOM      2  O2  UNL     1     149.715 164.915 168.003  0.00  0.00    +0.000 OA
ATOM      3  N1  UNL     1     148.296 163.228 167.331  0.00  0.00    +0.000 N 
ATOM      4  C8  UNL     1     147.459 164.311 166.811  0.00  0.00    +0.000 A 
ATOM      5  C9  UNL     1     148.025 165.538 166.484  0.00  0.00    +0.000 A 
ATOM      6  C10 UNL     1     147.309 166.577 165.912  0.00  0.00    +0.000 A 
ATOM      7  C11 UNL     1     145.973 166.430 165.635  0.00  0.00    +0.000 A 
ATOM      8  C12 UNL     1     145.418 165.213 165.958  0.00  0.00    +0.000 A 
ATOM      9  C13 UNL     1     146.136 164.197 166.523  0.00  0.00    +0.000 A 
ATOM     10  S2  UNL     1     145.257 162.700 166.840  0.00  0.00    +0.000 S 
ATOM     11  C14 UNL     1     146.476 161.522 167.358  0.00  0.00    +0.000 A 
ATOM     12  C15 UNL     1     146.030 160.242 167.567  0.00  0.00    +0.000 A 
ATOM     13  C16 UNL     1     146.849 159.233 168.014  0.00  0.00    +0.000 A 
ATOM     14  C17 UNL     1     148.148 159.600 168.236  0.00  0.00    +0.000 A 
ATOM     15  C18 UNL     1     148.597 160.909 168.019  0.00  0.00    +0.000 A 
ATOM     16  C19 UNL     1     147.769 161.919 167.568  0.00  0.00    +0.000 A 
ENDROOT
BRANCH   1  17
ATOM     17  C6  UNL     1     150.843 162.963 168.008  0.00  0.00    +0.000 C 
BRANCH  17  18
ATOM     18  S1  UNL     1     151.713 162.335 166.551  0.00  0.00    +0.000 S 
BRANCH  18  22
ATOM     19  C2  UNL     1     154.013 158.521 167.360  0.00  0.00    +0.000 A 
ATOM     20  C3  UNL     1     154.049 159.077 166.107  0.00  0.00    +0.000 A 
ATOM     21  C4  UNL     1     153.335 160.257 165.869  0.00  0.00    +0.000 A 
ATOM     22  C5  UNL     1     152.606 160.857 166.863  0.00  0.00    +0.000 A 
ATOM     23  C20 UNL     1     152.577 160.292 168.111  0.00  0.00    +0.000 A 
ATOM     24  C21 UNL     1     153.283 159.119 168.361  0.00  0.00    +0.000 A 
BRANCH  19  26
ATOM     25  C1  UNL     1     155.485 157.139 168.763  0.00  0.00    +0.000 C 
ATOM     26  O1  UNL     1     154.721 157.351 167.592  0.00  0.00    +0.000 OA
ENDBRANCH  19  26
ENDBRANCH  18  22
ENDBRANCH  17  18
ENDBRANCH   1  17
TORSDOF 4
ENDMDL
MODEL 6
REMARK VINA RESULT:      -6.3      3.329      5.606
REMARK  Name = ./3D_structures\o31_MMV1578573_3D.pdb
REMARK  5 active torsions:
REMARK  status: ('A' for Active; 'I' for Inactive)
REMARK    1  A    between atoms: C1_1  and  O1_2
REMARK    2  A    between atoms: O1_2  and  C2_3
REMARK    3  A    between atoms: C5_6  and  S1_7
REMARK    4  A    between atoms: S1_7  and  C6_8
REMARK    5  A    between atoms: C6_8  and  C7_9
REMARK                            x       y       z     vdW  Elec       q    Type
REMARK                         _______ _______ _______ _____ _____    ______ ____
ROOT
ATOM      1  C7  UNL     1     153.826 160.025 166.093  0.00  0.00    +0.000 C 
ATOM      2  O2  UNL     1     154.583 160.671 165.204  0.00  0.00    +0.000 OA
ATOM      3  N1  UNL     1     152.837 160.803 166.702  0.00  0.00    +0.000 N 
ATOM      4  C8  UNL     1     152.493 162.041 165.998  0.00  0.00    +0.000 A 
ATOM      5  C9  UNL     1     152.898 162.235 164.683  0.00  0.00    +0.000 A 
ATOM      6  C10 UNL     1     152.540 163.342 163.932  0.00  0.00    +0.000 A 
ATOM      7  C11 UNL     1     151.745 164.320 164.474  0.00  0.00    +0.000 A 
ATOM      8  C12 UNL     1     151.343 164.124 165.775  0.00  0.00    +0.000 A 
ATOM      9  C13 UNL     1     151.705 163.026 166.505  0.00  0.00    +0.000 A 
ATOM     10  S2  UNL     1     151.071 162.936 168.148  0.00  0.00    +0.000 S 
ATOM     11  C14 UNL     1     151.521 161.331 168.755  0.00  0.00    +0.000 A 
ATOM     12  C15 UNL     1     151.041 160.997 169.996  0.00  0.00    +0.000 A 
ATOM     13  C16 UNL     1     151.345 159.808 170.614  0.00  0.00    +0.000 A 
ATOM     14  C17 UNL     1     152.163 158.978 169.898  0.00  0.00    +0.000 A 
ATOM     15  C18 UNL     1     152.649 159.326 168.631  0.00  0.00    +0.000 A 
ATOM     16  C19 UNL     1     152.339 160.522 168.014  0.00  0.00    +0.000 A 
ENDROOT
BRANCH   1  17
ATOM     17  C6  UNL     1     154.271 158.648 166.147  0.00  0.00    +0.000 C 
BRANCH  17  18
ATOM     18  S1  UNL     1     155.939 158.378 166.794  0.00  0.00    +0.000 S 
BRANCH  18  22
ATOM     19  C2  UNL     1     156.181 158.695 171.303  0.00  0.00    +0.000 A 
ATOM     20  C3  UNL     1     156.352 159.821 170.537  0.00  0.00    +0.000 A 
ATOM     21  C4  UNL     1     156.274 159.711 169.145  0.00  0.00    +0.000 A 
ATOM     22  C5  UNL     1     156.032 158.503 168.542  0.00  0.00    +0.000 A 
ATOM     23  C20 UNL     1     155.863 157.385 169.317  0.00  0.00    +0.000 A 
ATOM     24  C21 UNL     1     155.938 157.482 170.703  0.00  0.00    +0.000 A 
BRANCH  19  26
ATOM     25  C1  UNL     1     155.513 159.759 173.417  0.00  0.00    +0.000 C 
ATOM     26  O1  UNL     1     156.259 158.808 172.683  0.00  0.00    +0.000 OA
ENDBRANCH  19  26
ENDBRANCH  18  22
ENDBRANCH  17  18
ENDBRANCH   1  17
TORSDOF 4
ENDMDL
MODEL 7
REMARK VINA RESULT:      -6.3      2.609      3.132
REMARK  Name = ./3D_structures\o31_MMV1578573_3D.pdb
REMARK  5 active torsions:
REMARK  status: ('A' for Active; 'I' for Inactive)
REMARK    1  A    between atoms: C1_1  and  O1_2
REMARK    2  A    between atoms: O1_2  and  C2_3
REMARK    3  A    between atoms: C5_6  and  S1_7
REMARK    4  A    between atoms: S1_7  and  C6_8
REMARK    5  A    between atoms: C6_8  and  C7_9
REMARK                            x       y       z     vdW  Elec       q    Type
REMARK                         _______ _______ _______ _____ _____    ______ ____
ROOT
ATOM      1  C7  UNL     1     149.140 161.560 168.216  0.00  0.00    +0.000 C 
ATOM      2  O2  UNL     1     148.693 160.965 167.108  0.00  0.00    +0.000 OA
ATOM      3  N1  UNL     1     148.313 162.570 168.718  0.00  0.00    +0.000 N 
ATOM      4  C8  UNL     1     146.928 162.538 168.242  0.00  0.00    +0.000 A 
ATOM      5  C9  UNL     1     146.432 161.406 167.605  0.00  0.00    +0.000 A 
ATOM      6  C10 UNL     1     145.113 161.277 167.203  0.00  0.00    +0.000 A 
ATOM      7  C11 UNL     1     144.216 162.291 167.428  0.00  0.00    +0.000 A 
ATOM      8  C12 UNL     1     144.710 163.408 168.062  0.00  0.00    +0.000 A 
ATOM      9  C13 UNL     1     146.015 163.523 168.451  0.00  0.00    +0.000 A 
ATOM     10  S2  UNL     1     146.457 165.020 169.274  0.00  0.00    +0.000 S 
ATOM     11  C14 UNL     1     148.121 164.789 169.841  0.00  0.00    +0.000 A 
ATOM     12  C15 UNL     1     148.646 165.801 170.604  0.00  0.00    +0.000 A 
ATOM     13  C16 UNL     1     149.937 165.783 171.075  0.00  0.00    +0.000 A 
ATOM     14  C17 UNL     1     150.663 164.678 170.726  0.00  0.00    +0.000 A 
ATOM     15  C18 UNL     1     150.120 163.648 169.948  0.00  0.00    +0.000 A 
ATOM     16  C19 UNL     1     148.821 163.670 169.478  0.00  0.00    +0.000 A 
ENDROOT
BRANCH   1  17
ATOM     17  C6  UNL     1     150.397 160.941 168.584  0.00  0.00    +0.000 C 
BRANCH  17  18
ATOM     18  S1  UNL     1     151.822 161.364 167.553  0.00  0.00    +0.000 S 
BRANCH  18  22
ATOM     19  C2  UNL     1     154.738 157.937 167.055  0.00  0.00    +0.000 A 
ATOM     20  C3  UNL     1     154.465 158.752 165.986  0.00  0.00    +0.000 A 
ATOM     21  C4  UNL     1     153.564 159.808 166.152  0.00  0.00    +0.000 A 
ATOM     22  C5  UNL     1     152.954 160.036 167.358  0.00  0.00    +0.000 A 
ATOM     23  C20 UNL     1     153.233 159.216 168.420  0.00  0.00    +0.000 A 
ATOM     24  C21 UNL     1     154.129 158.161 168.268  0.00  0.00    +0.000 A 
BRANCH  19  26
ATOM     25  C1  UNL     1     156.422 156.738 165.724  0.00  0.00    +0.000 C 
ATOM     26  O1  UNL     1     155.632 156.890 166.887  0.00  0.00    +0.000 OA
ENDBRANCH  19  26
ENDBRANCH  18  22
ENDBRANCH  17  18
ENDBRANCH   1  17
TORSDOF 4
ENDMDL
MODEL 8
REMARK VINA RESULT:      -6.3      4.674      9.142
REMARK  Name = ./3D_structures\o31_MMV1578573_3D.pdb
REMARK  5 active torsions:
REMARK  status: ('A' for Active; 'I' for Inactive)
REMARK    1  A    between atoms: C1_1  and  O1_2
REMARK    2  A    between atoms: O1_2  and  C2_3
REMARK    3  A    between atoms: C5_6  and  S1_7
REMARK    4  A    between atoms: S1_7  and  C6_8
REMARK    5  A    between atoms: C6_8  and  C7_9
REMARK                            x       y       z     vdW  Elec       q    Type
REMARK                         _______ _______ _______ _____ _____    ______ ____
ROOT
ATOM      1  C7  UNL     1     156.358 158.077 169.520  0.00  0.00    +0.000 C 
ATOM      2  O2  UNL     1     156.295 156.755 169.350  0.00  0.00    +0.000 OA
ATOM      3  N1  UNL     1     157.396 158.711 168.832  0.00  0.00    +0.000 N 
ATOM      4  C8  UNL     1     157.973 157.944 167.724  0.00  0.00    +0.000 A 
ATOM      5  C9  UNL     1     157.310 156.830 167.225  0.00  0.00    +0.000 A 
ATOM      6  C10 UNL     1     157.755 156.108 166.129  0.00  0.00    +0.000 A 
ATOM      7  C11 UNL     1     158.901 156.479 165.473  0.00  0.00    +0.000 A 
ATOM      8  C12 UNL     1     159.553 157.585 165.969  0.00  0.00    +0.000 A 
ATOM      9  C13 UNL     1     159.103 158.287 167.052  0.00  0.00    +0.000 A 
ATOM     10  S2  UNL     1     160.058 159.693 167.524  0.00  0.00    +0.000 S 
ATOM     11  C14 UNL     1     159.126 160.509 168.793  0.00  0.00    +0.000 A 
ATOM     12  C15 UNL     1     159.636 161.698 169.248  0.00  0.00    +0.000 A 
ATOM     13  C16 UNL     1     159.048 162.419 170.260  0.00  0.00    +0.000 A 
ATOM     14  C17 UNL     1     157.913 161.862 170.782  0.00  0.00    +0.000 A 
ATOM     15  C18 UNL     1     157.398 160.648 170.311  0.00  0.00    +0.000 A 
ATOM     16  C19 UNL     1     157.991 159.927 169.293  0.00  0.00    +0.000 A 
ENDROOT
BRANCH   1  17
ATOM     17  C6  UNL     1     155.272 158.471 170.394  0.00  0.00    +0.000 C 
BRANCH  17  18
ATOM     18  S1  UNL     1     153.606 158.327 169.706  0.00  0.00    +0.000 S 
BRANCH  18  22
ATOM     19  C2  UNL     1     153.069 160.620 165.840  0.00  0.00    +0.000 A 
ATOM     20  C3  UNL     1     153.892 159.523 165.865  0.00  0.00    +0.000 A 
ATOM     21  C4  UNL     1     154.049 158.822 167.065  0.00  0.00    +0.000 A 
ATOM     22  C5  UNL     1     153.398 159.214 168.205  0.00  0.00    +0.000 A 
ATOM     23  C20 UNL     1     152.578 160.312 168.169  0.00  0.00    +0.000 A 
ATOM     24  C21 UNL     1     152.413 161.018 166.981  0.00  0.00    +0.000 A 
BRANCH  19  26
ATOM     25  C1  UNL     1     152.187 162.522 164.555  0.00  0.00    +0.000 C 
ATOM     26  O1  UNL     1     152.916 161.314 164.648  0.00  0.00    +0.000 OA
ENDBRANCH  19  26
ENDBRANCH  18  22
ENDBRANCH  17  18
ENDBRANCH   1  17
TORSDOF 4
ENDMDL
MODEL 9
REMARK VINA RESULT:      -6.2      4.489      7.725
REMARK  Name = ./3D_structures\o31_MMV1578573_3D.pdb
REMARK  5 active torsions:
REMARK  status: ('A' for Active; 'I' for Inactive)
REMARK    1  A    between atoms: C1_1  and  O1_2
REMARK    2  A    between atoms: O1_2  and  C2_3
REMARK    3  A    between atoms: C5_6  and  S1_7
REMARK    4  A    between atoms: S1_7  and  C6_8
REMARK    5  A    between atoms: C6_8  and  C7_9
REMARK                            x       y       z     vdW  Elec       q    Type
REMARK                         _______ _______ _______ _____ _____    ______ ____
ROOT
ATOM      1  C7  UNL     1     153.150 160.421 169.073  0.00  0.00    +0.000 C 
ATOM      2  O2  UNL     1     153.023 161.458 169.903  0.00  0.00    +0.000 OA
ATOM      3  N1  UNL     1     154.201 159.549 169.373  0.00  0.00    +0.000 N 
ATOM      4  C8  UNL     1     154.718 159.641 170.740  0.00  0.00    +0.000 A 
ATOM      5  C9  UNL     1     153.995 160.313 171.719  0.00  0.00    +0.000 A 
ATOM      6  C10 UNL     1     154.384 160.369 173.048  0.00  0.00    +0.000 A 
ATOM      7  C11 UNL     1     155.531 159.741 173.462  0.00  0.00    +0.000 A 
ATOM      8  C12 UNL     1     156.243 159.075 172.491  0.00  0.00    +0.000 A 
ATOM      9  C13 UNL     1     155.849 159.029 171.183  0.00  0.00    +0.000 A 
ATOM     10  S2  UNL     1     156.876 158.103 170.088  0.00  0.00    +0.000 S 
ATOM     11  C14 UNL     1     156.009 158.044 168.542  0.00  0.00    +0.000 A 
ATOM     12  C15 UNL     1     156.582 157.282 167.557  0.00  0.00    +0.000 A 
ATOM     13  C16 UNL     1     156.049 157.179 166.294  0.00  0.00    +0.000 A 
ATOM     14  C17 UNL     1     154.902 157.895 166.091  0.00  0.00    +0.000 A 
ATOM     15  C18 UNL     1     154.322 158.670 167.104  0.00  0.00    +0.000 A 
ATOM     16  C19 UNL     1     154.860 158.770 168.371  0.00  0.00    +0.000 A 
ENDROOT
BRANCH   1  17
ATOM     17  C6  UNL     1     152.102 160.512 168.077  0.00  0.00    +0.000 C 
BRANCH  17  18
ATOM     18  S1  UNL     1     150.409 160.583 168.709  0.00  0.00    +0.000 S 
BRANCH  18  22
ATOM     19  C2  UNL     1     149.261 156.947 171.151  0.00  0.00    +0.000 A 
ATOM     20  C3  UNL     1     150.300 157.740 171.569  0.00  0.00    +0.000 A 
ATOM     21  C4  UNL     1     150.644 158.862 170.807  0.00  0.00    +0.000 A 
ATOM     22  C5  UNL     1     149.965 159.174 169.658  0.00  0.00    +0.000 A 
ATOM     23  C20 UNL     1     148.929 158.375 169.249  0.00  0.00    +0.000 A 
ATOM     24  C21 UNL     1     148.576 157.256 169.999  0.00  0.00    +0.000 A 
BRANCH  19  26
ATOM     25  C1  UNL     1     149.139 154.511 171.462  0.00  0.00    +0.000 C 
ATOM     26  O1  UNL     1     148.922 155.836 171.908  0.00  0.00    +0.000 OA
ENDBRANCH  19  26
ENDBRANCH  18  22
ENDBRANCH  17  18
ENDBRANCH   1  17
TORSDOF 4
ENDMDL
