MODEL 1
REMARK VINA RESULT:      -5.8      0.000      0.000
REMARK  Name = ./3D_structures\o32_MMV1578571_3D.pdb
REMARK  9 active torsions:
REMARK  status: ('A' for Active; 'I' for Inactive)
REMARK    1  A    between atoms: C1_1  and  C2_2
REMARK    2  A    between atoms: C2_2  and  C3_3
REMARK    3  A    between atoms: C2_2  and  C4_4
REMARK    4  A    between atoms: C2_2  and  C5_5
REMARK    5  A    between atoms: C6_8  and  C8_10
REMARK    6  A    between atoms: C8_10  and  C9_12
REMARK    7  A    between atoms: C9_12  and  C16_22
REMARK    8  A    between atoms: N2_13  and  N3_14
REMARK    9  A    between atoms: N3_14  and  C10_15
REMARK                            x       y       z     vdW  Elec       q    Type
REMARK                         _______ _______ _______ _____ _____    ______ ____
ROOT
ATOM      1  C9  UNL     1     161.577 147.277 169.359  0.00  0.00    +0.000 C 
ATOM      2  N2  UNL     1     161.166 146.251 168.772  0.00  0.00    +0.000 NA
ENDROOT
BRANCH   1   3
ATOM      3  C8  UNL     1     161.618 148.598 168.626  0.00  0.00    +0.000 C 
ATOM      4  O2  UNL     1     160.904 148.877 167.743  0.00  0.00    +0.000 OA
BRANCH   3   8
ATOM      5  C5  UNL     1     164.826 150.182 168.374  0.00  0.00    +0.000 A 
ATOM      6  O1  UNL     1     164.619 150.576 169.605  0.00  0.00    +0.000 OA
ATOM      7  N1  UNL     1     163.466 150.045 169.872  0.00  0.00    +0.000 NA
ATOM      8  C6  UNL     1     162.794 149.430 169.301  0.00  0.00    +0.000 A 
ATOM      9  C7  UNL     1     163.767 149.438 167.994  0.00  0.00    +0.000 A 
BRANCH   5  11
ATOM     10  C1  UNL     1     166.953 151.329 168.293  0.00  0.00    +0.000 C 
ATOM     11  C2  UNL     1     166.006 150.469 167.470  0.00  0.00    +0.000 C 
ATOM     12  C3  UNL     1     166.649 149.195 167.000  0.00  0.00    +0.000 C 
ATOM     13  C4  UNL     1     165.538 151.330 166.298  0.00  0.00    +0.000 C 
ENDBRANCH   5  11
ENDBRANCH   3   8
ENDBRANCH   1   3
BRANCH   2  14
ATOM     14  N3  UNL     1     161.073 144.983 169.277  0.00  0.00    +0.000 N 
ATOM     15  H11 UNL     1     160.778 144.920 170.311  0.00  0.00    +0.000 HD
BRANCH  14  16
ATOM     16  C10 UNL     1     161.293 143.723 168.680  0.00  0.00    +0.000 A 
ATOM     17  C11 UNL     1     161.883 142.780 169.564  0.00  0.00    +0.000 A 
ATOM     18  C12 UNL     1     162.121 141.501 168.987  0.00  0.00    +0.000 A 
ATOM     19  C13 UNL     1     161.833 141.199 167.760  0.00  0.00    +0.000 A 
ATOM     20  C14 UNL     1     161.249 142.103 166.844  0.00  0.00    +0.000 A 
ATOM     21 CL1  UNL     1     160.872 141.706 165.254  0.00  0.00    +0.000 Cl
ATOM     22  C15 UNL     1     161.010 143.384 167.429  0.00  0.00    +0.000 A 
ENDBRANCH  14  16
ENDBRANCH   2  14
BRANCH   1  23
ATOM     23  C16 UNL     1     161.867 147.233 170.753  0.00  0.00    +0.000 C 
ATOM     24  N4  UNL     1     162.100 147.177 171.926  0.00  0.00    +0.000 NA
ENDBRANCH   1  23
TORSDOF 6
ENDMDL
MODEL 2
REMARK VINA RESULT:      -5.8     22.721     24.599
REMARK  Name = ./3D_structures\o32_MMV1578571_3D.pdb
REMARK  9 active torsions:
REMARK  status: ('A' for Active; 'I' for Inactive)
REMARK    1  A    between atoms: C1_1  and  C2_2
REMARK    2  A    between atoms: C2_2  and  C3_3
REMARK    3  A    between atoms: C2_2  and  C4_4
REMARK    4  A    between atoms: C2_2  and  C5_5
REMARK    5  A    between atoms: C6_8  and  C8_10
REMARK    6  A    between atoms: C8_10  and  C9_12
REMARK    7  A    between atoms: C9_12  and  C16_22
REMARK    8  A    between atoms: N2_13  and  N3_14
REMARK    9  A    between atoms: N3_14  and  C10_15
REMARK                            x       y       z     vdW  Elec       q    Type
REMARK                         _______ _______ _______ _____ _____    ______ ____
ROOT
ATOM      1  C9  UNL     1     148.683 164.609 170.228  0.00  0.00    +0.000 C 
ATOM      2  N2  UNL     1     147.486 164.881 170.467  0.00  0.00    +0.000 NA
ENDROOT
BRANCH   1   3
ATOM      3  C8  UNL     1     149.782 165.339 170.966  0.00  0.00    +0.000 C 
ATOM      4  O2  UNL     1     150.183 165.023 172.018  0.00  0.00    +0.000 OA
BRANCH   3   8
ATOM      5  C5  UNL     1     150.494 168.830 170.552  0.00  0.00    +0.000 A 
ATOM      6  O1  UNL     1     150.796 168.521 169.316  0.00  0.00    +0.000 OA
ATOM      7  N1  UNL     1     150.558 167.246 169.286  0.00  0.00    +0.000 NA
ATOM      8  C6  UNL     1     150.203 166.551 170.026  0.00  0.00    +0.000 A 
ATOM      9  C7  UNL     1     150.095 167.701 171.175  0.00  0.00    +0.000 A 
BRANCH   5  11
ATOM     10  C1  UNL     1     149.462 170.155 172.290  0.00  0.00    +0.000 C 
ATOM     11  C2  UNL     1     150.557 170.178 171.237  0.00  0.00    +0.000 C 
ATOM     12  C3  UNL     1     151.918 170.421 171.827  0.00  0.00    +0.000 C 
ATOM     13  C4  UNL     1     150.178 171.265 170.232  0.00  0.00    +0.000 C 
ENDBRANCH   5  11
ENDBRANCH   3   8
ENDBRANCH   1   3
BRANCH   2  14
ATOM     14  N3  UNL     1     146.375 164.331 169.889  0.00  0.00    +0.000 N 
ATOM     15  H11 UNL     1     145.866 163.589 170.482  0.00  0.00    +0.000 HD
BRANCH  14  16
ATOM     16  C10 UNL     1     145.762 164.562 168.638  0.00  0.00    +0.000 A 
ATOM     17  C11 UNL     1     144.761 163.605 168.319  0.00  0.00    +0.000 A 
ATOM     18  C12 UNL     1     144.131 163.812 167.060  0.00  0.00    +0.000 A 
ATOM     19  C13 UNL     1     144.428 164.783 166.255  0.00  0.00    +0.000 A 
ATOM     20  C14 UNL     1     145.416 165.756 166.528  0.00  0.00    +0.000 A 
ATOM     21 CL1  UNL     1     145.795 167.018 165.484  0.00  0.00    +0.000 Cl
ATOM     22  C15 UNL     1     146.044 165.545 167.794  0.00  0.00    +0.000 A 
ENDBRANCH  14  16
ENDBRANCH   2  14
BRANCH   1  23
ATOM     23  C16 UNL     1     149.010 163.519 169.372  0.00  0.00    +0.000 C 
ATOM     24  N4  UNL     1     149.297 162.594 168.667  0.00  0.00    +0.000 NA
ENDBRANCH   1  23
TORSDOF 6
ENDMDL
MODEL 3
REMARK VINA RESULT:      -5.8     11.765     13.988
REMARK  Name = ./3D_structures\o32_MMV1578571_3D.pdb
REMARK  9 active torsions:
REMARK  status: ('A' for Active; 'I' for Inactive)
REMARK    1  A    between atoms: C1_1  and  C2_2
REMARK    2  A    between atoms: C2_2  and  C3_3
REMARK    3  A    between atoms: C2_2  and  C4_4
REMARK    4  A    between atoms: C2_2  and  C5_5
REMARK    5  A    between atoms: C6_8  and  C8_10
REMARK    6  A    between atoms: C8_10  and  C9_12
REMARK    7  A    between atoms: C9_12  and  C16_22
REMARK    8  A    between atoms: N2_13  and  N3_14
REMARK    9  A    between atoms: N3_14  and  C10_15
REMARK                            x       y       z     vdW  Elec       q    Type
REMARK                         _______ _______ _______ _____ _____    ______ ____
ROOT
ATOM      1  C9  UNL     1     156.036 157.511 169.294  0.00  0.00    +0.000 C 
ATOM      2  N2  UNL     1     154.845 157.365 168.940  0.00  0.00    +0.000 NA
ENDROOT
BRANCH   1   3
ATOM      3  C8  UNL     1     157.122 157.633 168.249  0.00  0.00    +0.000 C 
ATOM      4  O2  UNL     1     158.162 158.130 168.444  0.00  0.00    +0.000 OA
BRANCH   3   8
ATOM      5  C5  UNL     1     157.620 155.784 165.216  0.00  0.00    +0.000 A 
ATOM      6  O1  UNL     1     156.320 155.847 165.080  0.00  0.00    +0.000 OA
ATOM      7  N1  UNL     1     155.968 156.535 166.122  0.00  0.00    +0.000 NA
ATOM      8  C6  UNL     1     156.526 156.978 166.928  0.00  0.00    +0.000 A 
ATOM      9  C7  UNL     1     157.951 156.446 166.345  0.00  0.00    +0.000 A 
BRANCH   5  11
ATOM     10  C1  UNL     1     159.927 155.892 164.502  0.00  0.00    +0.000 C 
ATOM     11  C2  UNL     1     158.638 155.108 164.322  0.00  0.00    +0.000 C 
ATOM     12  C3  UNL     1     158.792 153.657 164.679  0.00  0.00    +0.000 C 
ATOM     13  C4  UNL     1     158.215 155.287 162.864  0.00  0.00    +0.000 C 
ENDBRANCH   5  11
ENDBRANCH   3   8
ENDBRANCH   1   3
BRANCH   2  14
ATOM     14  N3  UNL     1     153.748 157.229 169.745  0.00  0.00    +0.000 N 
ATOM     15  H11 UNL     1     153.846 156.509 170.540  0.00  0.00    +0.000 HD
BRANCH  14  16
ATOM     16  C10 UNL     1     152.491 157.872 169.725  0.00  0.00    +0.000 A 
ATOM     17  C11 UNL     1     152.540 159.183 169.178  0.00  0.00    +0.000 A 
ATOM     18  C12 UNL     1     151.288 159.856 169.151  0.00  0.00    +0.000 A 
ATOM     19  C13 UNL     1     150.181 159.339 169.585  0.00  0.00    +0.000 A 
ATOM     20  C14 UNL     1     150.083 158.043 170.139  0.00  0.00    +0.000 A 
ATOM     21 CL1  UNL     1     148.645 157.373 170.695  0.00  0.00    +0.000 Cl
ATOM     22  C15 UNL     1     151.343 157.370 170.161  0.00  0.00    +0.000 A 
ENDBRANCH  14  16
ENDBRANCH   2  14
BRANCH   1  23
ATOM     23  C16 UNL     1     156.353 157.707 170.669  0.00  0.00    +0.000 C 
ATOM     24  N4  UNL     1     156.613 157.892 171.823  0.00  0.00    +0.000 NA
ENDBRANCH   1  23
TORSDOF 6
ENDMDL
MODEL 4
REMARK VINA RESULT:      -5.7      9.115     10.899
REMARK  Name = ./3D_structures\o32_MMV1578571_3D.pdb
REMARK  9 active torsions:
REMARK  status: ('A' for Active; 'I' for Inactive)
REMARK    1  A    between atoms: C1_1  and  C2_2
REMARK    2  A    between atoms: C2_2  and  C3_3
REMARK    3  A    between atoms: C2_2  and  C4_4
REMARK    4  A    between atoms: C2_2  and  C5_5
REMARK    5  A    between atoms: C6_8  and  C8_10
REMARK    6  A    between atoms: C8_10  and  C9_12
REMARK    7  A    between atoms: C9_12  and  C16_22
REMARK    8  A    between atoms: N2_13  and  N3_14
REMARK    9  A    between atoms: N3_14  and  C10_15
REMARK                            x       y       z     vdW  Elec       q    Type
REMARK                         _______ _______ _______ _____ _____    ______ ____
ROOT
ATOM      1  C9  UNL     1     158.568 155.423 164.081  0.00  0.00    +0.000 C 
ATOM      2  N2  UNL     1     158.734 154.506 164.916  0.00  0.00    +0.000 NA
ENDROOT
BRANCH   1   3
ATOM      3  C8  UNL     1     158.208 156.814 164.552  0.00  0.00    +0.000 C 
ATOM      4  O2  UNL     1     158.786 157.779 164.238  0.00  0.00    +0.000 OA
BRANCH   3   8
ATOM      5  C5  UNL     1     156.614 157.442 167.704  0.00  0.00    +0.000 A 
ATOM      6  O1  UNL     1     155.584 156.812 167.197  0.00  0.00    +0.000 OA
ATOM      7  N1  UNL     1     156.019 156.478 166.021  0.00  0.00    +0.000 NA
ATOM      8  C6  UNL     1     156.956 156.632 165.517  0.00  0.00    +0.000 A 
ATOM      9  C7  UNL     1     157.597 157.438 166.779  0.00  0.00    +0.000 A 
BRANCH   5  11
ATOM     10  C1  UNL     1     155.962 157.213 170.020  0.00  0.00    +0.000 C 
ATOM     11  C2  UNL     1     156.756 158.088 169.065  0.00  0.00    +0.000 C 
ATOM     12  C3  UNL     1     158.202 158.205 169.459  0.00  0.00    +0.000 C 
ATOM     13  C4  UNL     1     156.068 159.452 169.042  0.00  0.00    +0.000 C 
ENDBRANCH   5  11
ENDBRANCH   3   8
ENDBRANCH   1   3
BRANCH   2  14
ATOM     14  N3  UNL     1     159.049 153.199 164.666  0.00  0.00    +0.000 N 
ATOM     15  H11 UNL     1     160.102 152.972 164.658  0.00  0.00    +0.000 HD
BRANCH  14  16
ATOM     16  C10 UNL     1     158.234 152.074 164.415  0.00  0.00    +0.000 A 
ATOM     17  C11 UNL     1     158.629 150.920 165.145  0.00  0.00    +0.000 A 
ATOM     18  C12 UNL     1     157.828 149.770 164.907  0.00  0.00    +0.000 A 
ATOM     19  C13 UNL     1     156.817 149.750 164.095  0.00  0.00    +0.000 A 
ATOM     20  C14 UNL     1     156.388 150.869 163.347  0.00  0.00    +0.000 A 
ATOM     21 CL1  UNL     1     155.073 150.842 162.300  0.00  0.00    +0.000 Cl
ATOM     22  C15 UNL     1     157.195 152.023 163.592  0.00  0.00    +0.000 A 
ENDBRANCH  14  16
ENDBRANCH   2  14
BRANCH   1  23
ATOM     23  C16 UNL     1     158.859 155.196 162.705  0.00  0.00    +0.000 C 
ATOM     24  N4  UNL     1     159.114 155.024 161.548  0.00  0.00    +0.000 NA
ENDBRANCH   1  23
TORSDOF 6
ENDMDL
MODEL 5
REMARK VINA RESULT:      -5.7      4.156      6.891
REMARK  Name = ./3D_structures\o32_MMV1578571_3D.pdb
REMARK  9 active torsions:
REMARK  status: ('A' for Active; 'I' for Inactive)
REMARK    1  A    between atoms: C1_1  and  C2_2
REMARK    2  A    between atoms: C2_2  and  C3_3
REMARK    3  A    between atoms: C2_2  and  C4_4
REMARK    4  A    between atoms: C2_2  and  C5_5
REMARK    5  A    between atoms: C6_8  and  C8_10
REMARK    6  A    between atoms: C8_10  and  C9_12
REMARK    7  A    between atoms: C9_12  and  C16_22
REMARK    8  A    between atoms: N2_13  and  N3_14
REMARK    9  A    between atoms: N3_14  and  C10_15
REMARK                            x       y       z     vdW  Elec       q    Type
REMARK                         _______ _______ _______ _____ _____    ______ ____
ROOT
ATOM      1  C9  UNL     1     162.136 148.982 167.854  0.00  0.00    +0.000 C 
ATOM      2  N2  UNL     1     161.027 149.210 167.322  0.00  0.00    +0.000 NA
ENDROOT
BRANCH   1   3
ATOM      3  C8  UNL     1     162.242 148.882 169.359  0.00  0.00    +0.000 C 
ATOM      4  O2  UNL     1     163.015 149.480 170.000  0.00  0.00    +0.000 OA
BRANCH   3   8
ATOM      5  C5  UNL     1     161.364 145.833 171.032  0.00  0.00    +0.000 A 
ATOM      6  O1  UNL     1     160.127 146.143 170.737  0.00  0.00    +0.000 OA
ATOM      7  N1  UNL     1     160.271 147.251 170.079  0.00  0.00    +0.000 NA
ATOM      8  C6  UNL     1     161.134 147.830 169.800  0.00  0.00    +0.000 A 
ATOM      9  C7  UNL     1     162.163 146.793 170.523  0.00  0.00    +0.000 A 
BRANCH   5  11
ATOM     10  C1  UNL     1     163.385 144.858 171.931  0.00  0.00    +0.000 C 
ATOM     11  C2  UNL     1     161.886 144.640 171.802  0.00  0.00    +0.000 C 
ATOM     12  C3  UNL     1     161.207 144.518 173.137  0.00  0.00    +0.000 C 
ATOM     13  C4  UNL     1     161.697 143.380 170.958  0.00  0.00    +0.000 C 
ENDBRANCH   5  11
ENDBRANCH   3   8
ENDBRANCH   1   3
BRANCH   2  14
ATOM     14  N3  UNL     1     160.754 149.342 165.988  0.00  0.00    +0.000 N 
ATOM     15  H11 UNL     1     161.606 149.555 165.363  0.00  0.00    +0.000 HD
BRANCH  14  16
ATOM     16  C10 UNL     1     159.543 149.245 165.269  0.00  0.00    +0.000 A 
ATOM     17  C11 UNL     1     159.414 148.026 164.550  0.00  0.00    +0.000 A 
ATOM     18  C12 UNL     1     158.204 147.904 163.812  0.00  0.00    +0.000 A 
ATOM     19  C13 UNL     1     157.283 148.816 163.781  0.00  0.00    +0.000 A 
ATOM     20  C14 UNL     1     157.368 150.043 164.475  0.00  0.00    +0.000 A 
ATOM     21 CL1  UNL     1     156.168 151.220 164.438  0.00  0.00    +0.000 Cl
ATOM     22  C15 UNL     1     158.583 150.159 165.217  0.00  0.00    +0.000 A 
ENDBRANCH  14  16
ENDBRANCH   2  14
BRANCH   1  23
ATOM     23  C16 UNL     1     163.266 148.675 167.044  0.00  0.00    +0.000 C 
ATOM     24  N4  UNL     1     164.228 148.416 166.380  0.00  0.00    +0.000 NA
ENDBRANCH   1  23
TORSDOF 6
ENDMDL
MODEL 6
REMARK VINA RESULT:      -5.6     11.787     12.644
REMARK  Name = ./3D_structures\o32_MMV1578571_3D.pdb
REMARK  9 active torsions:
REMARK  status: ('A' for Active; 'I' for Inactive)
REMARK    1  A    between atoms: C1_1  and  C2_2
REMARK    2  A    between atoms: C2_2  and  C3_3
REMARK    3  A    between atoms: C2_2  and  C4_4
REMARK    4  A    between atoms: C2_2  and  C5_5
REMARK    5  A    between atoms: C6_8  and  C8_10
REMARK    6  A    between atoms: C8_10  and  C9_12
REMARK    7  A    between atoms: C9_12  and  C16_22
REMARK    8  A    between atoms: N2_13  and  N3_14
REMARK    9  A    between atoms: N3_14  and  C10_15
REMARK                            x       y       z     vdW  Elec       q    Type
REMARK                         _______ _______ _______ _____ _____    ______ ____
ROOT
ATOM      1  C9  UNL     1     161.315 158.006 167.022  0.00  0.00    +0.000 C 
ATOM      2  N2  UNL     1     160.630 158.418 167.986  0.00  0.00    +0.000 NA
ENDROOT
BRANCH   1   3
ATOM      3  C8  UNL     1     162.781 157.694 167.220  0.00  0.00    +0.000 C 
ATOM      4  O2  UNL     1     163.223 156.612 167.224  0.00  0.00    +0.000 OA
BRANCH   3   8
ATOM      5  C5  UNL     1     165.416 159.643 168.678  0.00  0.00    +0.000 A 
ATOM      6  O1  UNL     1     164.923 160.643 167.992  0.00  0.00    +0.000 OA
ATOM      7  N1  UNL     1     163.904 160.096 167.403  0.00  0.00    +0.000 NA
ATOM      8  C6  UNL     1     163.498 159.100 167.420  0.00  0.00    +0.000 A 
ATOM      9  C7  UNL     1     164.646 158.560 168.442  0.00  0.00    +0.000 A 
BRANCH   5  11
ATOM     10  C1  UNL     1     167.066 158.167 169.647  0.00  0.00    +0.000 C 
ATOM     11  C2  UNL     1     166.626 159.620 169.586  0.00  0.00    +0.000 C 
ATOM     12  C3  UNL     1     167.707 160.527 169.070  0.00  0.00    +0.000 C 
ATOM     13  C4  UNL     1     166.195 160.008 171.000  0.00  0.00    +0.000 C 
ENDBRANCH   5  11
ENDBRANCH   3   8
ENDBRANCH   1   3
BRANCH   2  14
ATOM     14  N3  UNL     1     159.305 158.755 167.981  0.00  0.00    +0.000 N 
ATOM     15  H11 UNL     1     159.027 159.523 167.278  0.00  0.00    +0.000 HD
BRANCH  14  16
ATOM     16  C10 UNL     1     158.217 158.273 168.740  0.00  0.00    +0.000 A 
ATOM     17  C11 UNL     1     157.441 157.301 168.052  0.00  0.00    +0.000 A 
ATOM     18  C12 UNL     1     156.334 156.800 168.792  0.00  0.00    +0.000 A 
ATOM     19  C13 UNL     1     156.037 157.184 169.994  0.00  0.00    +0.000 A 
ATOM     20  C14 UNL     1     156.775 158.148 170.716  0.00  0.00    +0.000 A 
ATOM     21 CL1  UNL     1     156.391 158.640 172.277  0.00  0.00    +0.000 Cl
ATOM     22  C15 UNL     1     157.887 158.645 169.970  0.00  0.00    +0.000 A 
ENDBRANCH  14  16
ENDBRANCH   2  14
BRANCH   1  23
ATOM     23  C16 UNL     1     160.687 157.694 165.783  0.00  0.00    +0.000 C 
ATOM     24  N4  UNL     1     160.141 157.428 164.751  0.00  0.00    +0.000 NA
ENDBRANCH   1  23
TORSDOF 6
ENDMDL
MODEL 7
REMARK VINA RESULT:      -5.6     21.790     24.144
REMARK  Name = ./3D_structures\o32_MMV1578571_3D.pdb
REMARK  9 active torsions:
REMARK  status: ('A' for Active; 'I' for Inactive)
REMARK    1  A    between atoms: C1_1  and  C2_2
REMARK    2  A    between atoms: C2_2  and  C3_3
REMARK    3  A    between atoms: C2_2  and  C4_4
REMARK    4  A    between atoms: C2_2  and  C5_5
REMARK    5  A    between atoms: C6_8  and  C8_10
REMARK    6  A    between atoms: C8_10  and  C9_12
REMARK    7  A    between atoms: C9_12  and  C16_22
REMARK    8  A    between atoms: N2_13  and  N3_14
REMARK    9  A    between atoms: N3_14  and  C10_15
REMARK                            x       y       z     vdW  Elec       q    Type
REMARK                         _______ _______ _______ _____ _____    ______ ____
ROOT
ATOM      1  C9  UNL     1     148.019 164.690 168.629  0.00  0.00    +0.000 C 
ATOM      2  N2  UNL     1     148.785 165.463 168.010  0.00  0.00    +0.000 NA
ENDROOT
BRANCH   1   3
ATOM      3  C8  UNL     1     146.564 165.059 168.810  0.00  0.00    +0.000 C 
ATOM      4  O2  UNL     1     145.972 164.908 169.806  0.00  0.00    +0.000 OA
BRANCH   3   8
ATOM      5  C5  UNL     1     144.291 164.973 166.037  0.00  0.00    +0.000 A 
ATOM      6  O1  UNL     1     144.940 166.022 165.599  0.00  0.00    +0.000 OA
ATOM      7  N1  UNL     1     145.852 166.179 166.507  0.00  0.00    +0.000 NA
ATOM      8  C6  UNL     1     146.089 165.639 167.407  0.00  0.00    +0.000 A 
ATOM      9  C7  UNL     1     144.871 164.579 167.189  0.00  0.00    +0.000 A 
BRANCH   5  11
ATOM     10  C1  UNL     1     142.541 163.378 166.523  0.00  0.00    +0.000 C 
ATOM     11  C2  UNL     1     143.097 164.271 165.426  0.00  0.00    +0.000 C 
ATOM     12  C3  UNL     1     142.085 165.263 164.925  0.00  0.00    +0.000 C 
ATOM     13  C4  UNL     1     143.579 163.348 164.309  0.00  0.00    +0.000 C 
ENDBRANCH   5  11
ENDBRANCH   3   8
ENDBRANCH   1   3
BRANCH   2  14
ATOM     14  N3  UNL     1     150.120 165.292 167.766  0.00  0.00    +0.000 N 
ATOM     15  H11 UNL     1     150.774 165.550 168.582  0.00  0.00    +0.000 HD
BRANCH  14  16
ATOM     16  C10 UNL     1     150.808 164.831 166.623  0.00  0.00    +0.000 A 
ATOM     17  C11 UNL     1     151.134 165.868 165.708  0.00  0.00    +0.000 A 
ATOM     18  C12 UNL     1     151.824 165.431 164.543  0.00  0.00    +0.000 A 
ATOM     19  C13 UNL     1     152.139 164.194 164.313  0.00  0.00    +0.000 A 
ATOM     20  C14 UNL     1     151.833 163.129 165.190  0.00  0.00    +0.000 A 
ATOM     21 CL1  UNL     1     152.249 161.528 164.892  0.00  0.00    +0.000 Cl
ATOM     22  C15 UNL     1     151.144 163.575 166.359  0.00  0.00    +0.000 A 
ENDBRANCH  14  16
ENDBRANCH   2  14
BRANCH   1  23
ATOM     23  C16 UNL     1     148.479 163.405 169.037  0.00  0.00    +0.000 C 
ATOM     24  N4  UNL     1     148.845 162.319 169.382  0.00  0.00    +0.000 NA
ENDBRANCH   1  23
TORSDOF 6
ENDMDL
MODEL 8
REMARK VINA RESULT:      -5.6     10.611     12.906
REMARK  Name = ./3D_structures\o32_MMV1578571_3D.pdb
REMARK  9 active torsions:
REMARK  status: ('A' for Active; 'I' for Inactive)
REMARK    1  A    between atoms: C1_1  and  C2_2
REMARK    2  A    between atoms: C2_2  and  C3_3
REMARK    3  A    between atoms: C2_2  and  C4_4
REMARK    4  A    between atoms: C2_2  and  C5_5
REMARK    5  A    between atoms: C6_8  and  C8_10
REMARK    6  A    between atoms: C8_10  and  C9_12
REMARK    7  A    between atoms: C9_12  and  C16_22
REMARK    8  A    between atoms: N2_13  and  N3_14
REMARK    9  A    between atoms: N3_14  and  C10_15
REMARK                            x       y       z     vdW  Elec       q    Type
REMARK                         _______ _______ _______ _____ _____    ______ ____
ROOT
ATOM      1  C9  UNL     1     156.226 157.354 167.497  0.00  0.00    +0.000 C 
ATOM      2  N2  UNL     1     156.124 156.677 166.449  0.00  0.00    +0.000 NA
ENDROOT
BRANCH   1   3
ATOM      3  C8  UNL     1     155.190 157.212 168.588  0.00  0.00    +0.000 C 
ATOM      4  O2  UNL     1     154.045 157.084 168.388  0.00  0.00    +0.000 OA
BRANCH   3   8
ATOM      5  C5  UNL     1     155.915 158.934 171.650  0.00  0.00    +0.000 A 
ATOM      6  O1  UNL     1     156.684 157.911 171.928  0.00  0.00    +0.000 OA
ATOM      7  N1  UNL     1     156.554 157.175 170.869  0.00  0.00    +0.000 NA
ATOM      8  C6  UNL     1     155.993 157.294 169.959  0.00  0.00    +0.000 A 
ATOM      9  C7  UNL     1     155.376 158.727 170.431  0.00  0.00    +0.000 A 
BRANCH   5  11
ATOM     10  C1  UNL     1     154.416 160.820 171.846  0.00  0.00    +0.000 C 
ATOM     11  C2  UNL     1     155.626 160.161 172.488  0.00  0.00    +0.000 C 
ATOM     12  C3  UNL     1     155.383 159.789 173.924  0.00  0.00    +0.000 C 
ATOM     13  C4  UNL     1     156.788 161.143 172.350  0.00  0.00    +0.000 C 
ENDBRANCH   5  11
ENDBRANCH   3   8
ENDBRANCH   1   3
BRANCH   2  14
ATOM     14  N3  UNL     1     156.958 156.688 165.366  0.00  0.00    +0.000 N 
ATOM     15  H11 UNL     1     156.775 157.473 164.650  0.00  0.00    +0.000 HD
BRANCH  14  16
ATOM     16  C10 UNL     1     158.035 155.847 165.009  0.00  0.00    +0.000 A 
ATOM     17  C11 UNL     1     159.257 156.549 164.824  0.00  0.00    +0.000 A 
ATOM     18  C12 UNL     1     160.359 155.727 164.459  0.00  0.00    +0.000 A 
ATOM     19  C13 UNL     1     160.279 154.443 164.300  0.00  0.00    +0.000 A 
ATOM     20  C14 UNL     1     159.087 153.703 164.469  0.00  0.00    +0.000 A 
ATOM     21 CL1  UNL     1     158.988 152.036 164.269  0.00  0.00    +0.000 Cl
ATOM     22  C15 UNL     1     157.985 154.533 164.839  0.00  0.00    +0.000 A 
ENDBRANCH  14  16
ENDBRANCH   2  14
BRANCH   1  23
ATOM     23  C16 UNL     1     157.389 158.145 167.724  0.00  0.00    +0.000 C 
ATOM     24  N4  UNL     1     158.378 158.794 167.908  0.00  0.00    +0.000 NA
ENDBRANCH   1  23
TORSDOF 6
ENDMDL
MODEL 9
REMARK VINA RESULT:      -5.5      9.363     11.157
REMARK  Name = ./3D_structures\o32_MMV1578571_3D.pdb
REMARK  9 active torsions:
REMARK  status: ('A' for Active; 'I' for Inactive)
REMARK    1  A    between atoms: C1_1  and  C2_2
REMARK    2  A    between atoms: C2_2  and  C3_3
REMARK    3  A    between atoms: C2_2  and  C4_4
REMARK    4  A    between atoms: C2_2  and  C5_5
REMARK    5  A    between atoms: C6_8  and  C8_10
REMARK    6  A    between atoms: C8_10  and  C9_12
REMARK    7  A    between atoms: C9_12  and  C16_22
REMARK    8  A    between atoms: N2_13  and  N3_14
REMARK    9  A    between atoms: N3_14  and  C10_15
REMARK                            x       y       z     vdW  Elec       q    Type
REMARK                         _______ _______ _______ _____ _____    ______ ____
ROOT
ATOM      1  C9  UNL     1     157.771 155.673 164.071  0.00  0.00    +0.000 C 
ATOM      2  N2  UNL     1     157.402 154.539 164.452  0.00  0.00    +0.000 NA
ENDROOT
BRANCH   1   3
ATOM      3  C8  UNL     1     157.864 156.807 165.067  0.00  0.00    +0.000 C 
ATOM      4  O2  UNL     1     158.813 157.473 165.210  0.00  0.00    +0.000 OA
BRANCH   3   8
ATOM      5  C5  UNL     1     155.925 157.618 167.973  0.00  0.00    +0.000 A 
ATOM      6  O1  UNL     1     154.891 157.228 167.272  0.00  0.00    +0.000 OA
ATOM      7  N1  UNL     1     155.440 156.860 166.156  0.00  0.00    +0.000 NA
ATOM      8  C6  UNL     1     156.459 156.842 165.813  0.00  0.00    +0.000 A 
ATOM      9  C7  UNL     1     157.027 157.454 167.212  0.00  0.00    +0.000 A 
BRANCH   5  11
ATOM     10  C1  UNL     1     157.350 158.768 169.551  0.00  0.00    +0.000 C 
ATOM     11  C2  UNL     1     155.963 158.169 169.382  0.00  0.00    +0.000 C 
ATOM     12  C3  UNL     1     154.872 159.179 169.598  0.00  0.00    +0.000 C 
ATOM     13  C4  UNL     1     155.861 157.011 170.373  0.00  0.00    +0.000 C 
ENDBRANCH   5  11
ENDBRANCH   3   8
ENDBRANCH   1   3
BRANCH   2  14
ATOM     14  N3  UNL     1     157.254 153.413 163.690  0.00  0.00    +0.000 N 
ATOM     15  H11 UNL     1     156.924 153.581 162.678  0.00  0.00    +0.000 HD
BRANCH  14  16
ATOM     16  C10 UNL     1     157.459 152.049 163.991  0.00  0.00    +0.000 A 
ATOM     17  C11 UNL     1     156.399 151.211 163.549  0.00  0.00    +0.000 A 
ATOM     18  C12 UNL     1     156.577 149.831 163.844  0.00  0.00    +0.000 A 
ATOM     19  C13 UNL     1     157.611 149.354 164.465  0.00  0.00    +0.000 A 
ATOM     20  C14 UNL     1     158.686 150.146 164.925  0.00  0.00    +0.000 A 
ATOM     21 CL1  UNL     1     160.028 149.523 165.724  0.00  0.00    +0.000 Cl
ATOM     22  C15 UNL     1     158.503 151.531 164.624  0.00  0.00    +0.000 A 
ENDBRANCH  14  16
ENDBRANCH   2  14
BRANCH   1  23
ATOM     23  C16 UNL     1     158.240 155.861 162.740  0.00  0.00    +0.000 C 
ATOM     24  N4  UNL     1     158.614 156.015 161.613  0.00  0.00    +0.000 NA
ENDBRANCH   1  23
TORSDOF 6
ENDMDL
