MODEL 1
REMARK VINA RESULT:      -6.0      0.000      0.000
REMARK  Name = ./3D_structures\o34_MMV1634387_3D.pdb
REMARK  10 active torsions:
REMARK  status: ('A' for Active; 'I' for Inactive)
REMARK    1  A    between atoms: N1_3  and  C10_15
REMARK    2  A    between atoms: C2_5  and  C3_6
REMARK    3  A    between atoms: C3_6  and  O3_8
REMARK    4  A    between atoms: C10_15  and  C11_16
REMARK    5  A    between atoms: C11_16  and  O4_17
REMARK    6  A    between atoms: O4_17  and  C12_18
REMARK    7  A    between atoms: C15_21  and  C16_22
REMARK    8  A    between atoms: C16_22  and  C17_23
REMARK    9  A    between atoms: C16_22  and  C18_24
REMARK   10  A    between atoms: C16_22  and  C19_25
REMARK                            x       y       z     vdW  Elec       q    Type
REMARK                         _______ _______ _______ _____ _____    ______ ____
ROOT
ATOM      1  O1  UNL     1     157.229 161.443 168.800  0.00  0.00    +0.000 OA
ATOM      2  C1  UNL     1     156.201 160.744 168.959  0.00  0.00    +0.000 A 
ATOM      3  N1  UNL     1     155.847 160.196 170.132  0.00  0.00    +0.000 N 
ATOM      4  N2  UNL     1     154.781 159.468 170.297  0.00  0.00    +0.000 NA
ATOM      5  C2  UNL     1     153.903 159.190 169.270  0.00  0.00    +0.000 A 
ATOM      6  C4  UNL     1     154.220 159.727 168.047  0.00  0.00    +0.000 A 
ATOM      7  C5  UNL     1     155.368 160.510 167.872  0.00  0.00    +0.000 A 
ATOM      8  C6  UNL     1     155.638 161.016 166.626  0.00  0.00    +0.000 A 
ATOM      9  C7  UNL     1     154.854 160.813 165.513  0.00  0.00    +0.000 A 
ATOM     10  C8  UNL     1     153.728 160.045 165.682  0.00  0.00    +0.000 A 
ATOM     11  C9  UNL     1     153.421 159.512 166.943  0.00  0.00    +0.000 A 
ENDROOT
BRANCH   5  12
ATOM     12  C3  UNL     1     152.746 158.363 169.543  0.00  0.00    +0.000 C 
ATOM     13  O2  UNL     1     151.626 158.816 169.783  0.00  0.00    +0.000 OA
BRANCH  12  14
ATOM     14  O3  UNL     1     152.836 156.960 169.546  0.00  0.00    +0.000 OA
ATOM     15  H1  UNL     1     153.211 156.481 168.719  0.00  0.00    +0.000 HD
ENDBRANCH  12  14
ENDBRANCH   5  12
BRANCH   3  16
ATOM     16  C10 UNL     1     156.753 160.417 171.264  0.00  0.00    +0.000 C 
BRANCH  16  17
ATOM     17  C11 UNL     1     157.178 159.079 171.836  0.00  0.00    +0.000 C 
BRANCH  17  18
ATOM     18  O4  UNL     1     158.084 158.379 171.064  0.00  0.00    +0.000 OA
BRANCH  18  19
ATOM     19  C12 UNL     1     158.087 158.085 169.739  0.00  0.00    +0.000 A 
ATOM     20  C13 UNL     1     159.056 158.547 168.887  0.00  0.00    +0.000 A 
ATOM     21  C14 UNL     1     159.029 158.221 167.530  0.00  0.00    +0.000 A 
ATOM     22  C15 UNL     1     158.045 157.436 167.009  0.00  0.00    +0.000 A 
ATOM     23  C20 UNL     1     157.069 156.967 167.850  0.00  0.00    +0.000 A 
ATOM     24  C21 UNL     1     157.095 157.295 169.211  0.00  0.00    +0.000 A 
BRANCH  22  25
ATOM     25  C16 UNL     1     157.984 157.073 165.571  0.00  0.00    +0.000 C 
ATOM     26  C17 UNL     1     159.194 156.336 165.083  0.00  0.00    +0.000 C 
ATOM     27  C18 UNL     1     157.763 158.295 164.677  0.00  0.00    +0.000 C 
ATOM     28  C19 UNL     1     156.787 156.140 165.412  0.00  0.00    +0.000 C 
ENDBRANCH  22  25
ENDBRANCH  18  19
ENDBRANCH  17  18
ENDBRANCH  16  17
ENDBRANCH   3  16
TORSDOF 7
ENDMDL
MODEL 2
REMARK VINA RESULT:      -5.9      4.516      6.310
REMARK  Name = ./3D_structures\o34_MMV1634387_3D.pdb
REMARK  10 active torsions:
REMARK  status: ('A' for Active; 'I' for Inactive)
REMARK    1  A    between atoms: N1_3  and  C10_15
REMARK    2  A    between atoms: C2_5  and  C3_6
REMARK    3  A    between atoms: C3_6  and  O3_8
REMARK    4  A    between atoms: C10_15  and  C11_16
REMARK    5  A    between atoms: C11_16  and  O4_17
REMARK    6  A    between atoms: O4_17  and  C12_18
REMARK    7  A    between atoms: C15_21  and  C16_22
REMARK    8  A    between atoms: C16_22  and  C17_23
REMARK    9  A    between atoms: C16_22  and  C18_24
REMARK   10  A    between atoms: C16_22  and  C19_25
REMARK                            x       y       z     vdW  Elec       q    Type
REMARK                         _______ _______ _______ _____ _____    ______ ____
ROOT
ATOM      1  O1  UNL     1     159.612 159.992 168.989  0.00  0.00    +0.000 OA
ATOM      2  C1  UNL     1     158.781 159.320 168.334  0.00  0.00    +0.000 A 
ATOM      3  N1  UNL     1     158.779 159.239 166.994  0.00  0.00    +0.000 N 
ATOM      4  N2  UNL     1     157.915 158.543 166.314  0.00  0.00    +0.000 NA
ATOM      5  C2  UNL     1     156.910 157.813 166.913  0.00  0.00    +0.000 A 
ATOM      6  C4  UNL     1     156.867 157.862 168.284  0.00  0.00    +0.000 A 
ATOM      7  C5  UNL     1     157.798 158.612 169.014  0.00  0.00    +0.000 A 
ATOM      8  C6  UNL     1     157.703 158.629 170.383  0.00  0.00    +0.000 A 
ATOM      9  C7  UNL     1     156.750 157.954 171.109  0.00  0.00    +0.000 A 
ATOM     10  C8  UNL     1     155.836 157.218 170.395  0.00  0.00    +0.000 A 
ATOM     11  C9  UNL     1     155.902 157.178 168.994  0.00  0.00    +0.000 A 
ENDROOT
BRANCH   5  12
ATOM     12  C3  UNL     1     155.987 157.075 166.076  0.00  0.00    +0.000 C 
ATOM     13  O2  UNL     1     154.837 157.446 165.836  0.00  0.00    +0.000 OA
BRANCH  12  14
ATOM     14  O3  UNL     1     156.361 155.863 165.468  0.00  0.00    +0.000 OA
ATOM     15  H1  UNL     1     155.680 155.366 164.883  0.00  0.00    +0.000 HD
ENDBRANCH  12  14
ENDBRANCH   5  12
BRANCH   3  16
ATOM     16  C10 UNL     1     159.797 160.020 166.285  0.00  0.00    +0.000 C 
BRANCH  16  17
ATOM     17  C11 UNL     1     160.791 159.077 165.635  0.00  0.00    +0.000 C 
BRANCH  17  18
ATOM     18  O4  UNL     1     161.564 158.350 166.518  0.00  0.00    +0.000 OA
BRANCH  18  19
ATOM     19  C12 UNL     1     162.691 158.681 167.198  0.00  0.00    +0.000 A 
ATOM     20  C13 UNL     1     163.057 159.983 167.422  0.00  0.00    +0.000 A 
ATOM     21  C14 UNL     1     164.222 160.285 168.130  0.00  0.00    +0.000 A 
ATOM     22  C15 UNL     1     165.030 159.304 168.619  0.00  0.00    +0.000 A 
ATOM     23  C20 UNL     1     164.677 157.997 168.401  0.00  0.00    +0.000 A 
ATOM     24  C21 UNL     1     163.508 157.692 167.690  0.00  0.00    +0.000 A 
BRANCH  22  25
ATOM     25  C16 UNL     1     166.278 159.590 169.371  0.00  0.00    +0.000 C 
ATOM     26  C17 UNL     1     166.042 160.207 170.716  0.00  0.00    +0.000 C 
ATOM     27  C18 UNL     1     167.233 160.487 168.582  0.00  0.00    +0.000 C 
ATOM     28  C19 UNL     1     166.961 158.245 169.601  0.00  0.00    +0.000 C 
ENDBRANCH  22  25
ENDBRANCH  18  19
ENDBRANCH  17  18
ENDBRANCH  16  17
ENDBRANCH   3  16
TORSDOF 7
ENDMDL
MODEL 3
REMARK VINA RESULT:      -5.9      8.225     10.661
REMARK  Name = ./3D_structures\o34_MMV1634387_3D.pdb
REMARK  10 active torsions:
REMARK  status: ('A' for Active; 'I' for Inactive)
REMARK    1  A    between atoms: N1_3  and  C10_15
REMARK    2  A    between atoms: C2_5  and  C3_6
REMARK    3  A    between atoms: C3_6  and  O3_8
REMARK    4  A    between atoms: C10_15  and  C11_16
REMARK    5  A    between atoms: C11_16  and  O4_17
REMARK    6  A    between atoms: O4_17  and  C12_18
REMARK    7  A    between atoms: C15_21  and  C16_22
REMARK    8  A    between atoms: C16_22  and  C17_23
REMARK    9  A    between atoms: C16_22  and  C18_24
REMARK   10  A    between atoms: C16_22  and  C19_25
REMARK                            x       y       z     vdW  Elec       q    Type
REMARK                         _______ _______ _______ _____ _____    ______ ____
ROOT
ATOM      1  O1  UNL     1     145.746 162.244 169.179  0.00  0.00    +0.000 OA
ATOM      2  C1  UNL     1     145.701 163.239 168.419  0.00  0.00    +0.000 A 
ATOM      3  N1  UNL     1     146.029 164.483 168.800  0.00  0.00    +0.000 N 
ATOM      4  N2  UNL     1     145.980 165.517 168.010  0.00  0.00    +0.000 NA
ATOM      5  C2  UNL     1     145.584 165.429 166.692  0.00  0.00    +0.000 A 
ATOM      6  C4  UNL     1     145.236 164.176 166.252  0.00  0.00    +0.000 A 
ATOM      7  C5  UNL     1     145.289 163.066 167.103  0.00  0.00    +0.000 A 
ATOM      8  C6  UNL     1     144.924 161.838 166.610  0.00  0.00    +0.000 A 
ATOM      9  C7  UNL     1     144.504 161.608 165.320  0.00  0.00    +0.000 A 
ATOM     10  C8  UNL     1     144.451 162.696 164.484  0.00  0.00    +0.000 A 
ATOM     11  C9  UNL     1     144.816 163.965 164.954  0.00  0.00    +0.000 A 
ENDROOT
BRANCH   5  12
ATOM     12  C3  UNL     1     145.551 166.634 165.890  0.00  0.00    +0.000 C 
ATOM     13  O2  UNL     1     146.562 167.223 165.503  0.00  0.00    +0.000 OA
BRANCH  12  14
ATOM     14  O3  UNL     1     144.334 167.214 165.493  0.00  0.00    +0.000 OA
ATOM     15  H1  UNL     1     143.457 166.857 165.890  0.00  0.00    +0.000 HD
ENDBRANCH  12  14
ENDBRANCH   5  12
BRANCH   3  16
ATOM     16  C10 UNL     1     146.425 164.661 170.200  0.00  0.00    +0.000 C 
BRANCH  16  17
ATOM     17  C11 UNL     1     147.883 165.073 170.261  0.00  0.00    +0.000 C 
BRANCH  17  18
ATOM     18  O4  UNL     1     148.760 164.197 169.653  0.00  0.00    +0.000 OA
BRANCH  18  19
ATOM     19  C12 UNL     1     149.626 164.373 168.623  0.00  0.00    +0.000 A 
ATOM     20  C13 UNL     1     150.984 164.410 168.805  0.00  0.00    +0.000 A 
ATOM     21  C14 UNL     1     151.845 164.589 167.720  0.00  0.00    +0.000 A 
ATOM     22  C15 UNL     1     151.369 164.731 166.452  0.00  0.00    +0.000 A 
ATOM     23  C20 UNL     1     150.012 164.696 166.256  0.00  0.00    +0.000 A 
ATOM     24  C21 UNL     1     149.147 164.517 167.344  0.00  0.00    +0.000 A 
BRANCH  22  25
ATOM     25  C16 UNL     1     152.255 164.927 165.277  0.00  0.00    +0.000 C 
ATOM     26  C17 UNL     1     152.100 163.873 164.223  0.00  0.00    +0.000 C 
ATOM     27  C18 UNL     1     153.730 165.006 165.676  0.00  0.00    +0.000 C 
ATOM     28  C19 UNL     1     151.854 166.260 164.652  0.00  0.00    +0.000 C 
ENDBRANCH  22  25
ENDBRANCH  18  19
ENDBRANCH  17  18
ENDBRANCH  16  17
ENDBRANCH   3  16
TORSDOF 7
ENDMDL
MODEL 4
REMARK VINA RESULT:      -5.7      2.675      4.177
REMARK  Name = ./3D_structures\o34_MMV1634387_3D.pdb
REMARK  10 active torsions:
REMARK  status: ('A' for Active; 'I' for Inactive)
REMARK    1  A    between atoms: N1_3  and  C10_15
REMARK    2  A    between atoms: C2_5  and  C3_6
REMARK    3  A    between atoms: C3_6  and  O3_8
REMARK    4  A    between atoms: C10_15  and  C11_16
REMARK    5  A    between atoms: C11_16  and  O4_17
REMARK    6  A    between atoms: O4_17  and  C12_18
REMARK    7  A    between atoms: C15_21  and  C16_22
REMARK    8  A    between atoms: C16_22  and  C17_23
REMARK    9  A    between atoms: C16_22  and  C18_24
REMARK   10  A    between atoms: C16_22  and  C19_25
REMARK                            x       y       z     vdW  Elec       q    Type
REMARK                         _______ _______ _______ _____ _____    ______ ____
ROOT
ATOM      1  O1  UNL     1     154.348 160.140 168.537  0.00  0.00    +0.000 OA
ATOM      2  C1  UNL     1     154.974 159.262 167.897  0.00  0.00    +0.000 A 
ATOM      3  N1  UNL     1     155.142 158.003 168.330  0.00  0.00    +0.000 N 
ATOM      4  N2  UNL     1     155.793 157.092 167.666  0.00  0.00    +0.000 NA
ATOM      5  C2  UNL     1     156.376 157.339 166.441  0.00  0.00    +0.000 A 
ATOM      6  C4  UNL     1     156.234 158.614 165.953  0.00  0.00    +0.000 A 
ATOM      7  C5  UNL     1     155.534 159.592 166.668  0.00  0.00    +0.000 A 
ATOM      8  C6  UNL     1     155.427 160.851 166.134  0.00  0.00    +0.000 A 
ATOM      9  C7  UNL     1     155.964 161.236 164.927  0.00  0.00    +0.000 A 
ATOM     10  C8  UNL     1     156.652 160.278 164.224  0.00  0.00    +0.000 A 
ATOM     11  C9  UNL     1     156.780 158.980 164.740  0.00  0.00    +0.000 A 
ENDROOT
BRANCH   5  12
ATOM     12  C3  UNL     1     157.090 156.266 165.778  0.00  0.00    +0.000 C 
ATOM     13  O2  UNL     1     158.298 156.065 165.915  0.00  0.00    +0.000 OA
BRANCH  12  14
ATOM     14  O3  UNL     1     156.429 155.368 164.923  0.00  0.00    +0.000 OA
ATOM     15  H1  UNL     1     156.464 154.363 165.129  0.00  0.00    +0.000 HD
ENDBRANCH  12  14
ENDBRANCH   5  12
BRANCH   3  16
ATOM     16  C10 UNL     1     154.581 157.677 169.645  0.00  0.00    +0.000 C 
BRANCH  16  17
ATOM     17  C11 UNL     1     155.682 157.145 170.542  0.00  0.00    +0.000 C 
BRANCH  17  18
ATOM     18  O4  UNL     1     156.563 158.101 171.009  0.00  0.00    +0.000 OA
BRANCH  18  19
ATOM     19  C12 UNL     1     157.490 158.851 170.361  0.00  0.00    +0.000 A 
ATOM     20  C13 UNL     1     158.473 158.293 169.584  0.00  0.00    +0.000 A 
ATOM     21  C14 UNL     1     159.407 159.097 168.929  0.00  0.00    +0.000 A 
ATOM     22  C15 UNL     1     159.375 160.455 169.036  0.00  0.00    +0.000 A 
ATOM     23  C20 UNL     1     158.397 161.026 169.810  0.00  0.00    +0.000 A 
ATOM     24  C21 UNL     1     157.459 160.220 170.469  0.00  0.00    +0.000 A 
BRANCH  22  25
ATOM     25  C16 UNL     1     160.354 161.339 168.356  0.00  0.00    +0.000 C 
ATOM     26  C17 UNL     1     161.455 160.597 167.661  0.00  0.00    +0.000 C 
ATOM     27  C18 UNL     1     160.978 162.353 169.317  0.00  0.00    +0.000 C 
ATOM     28  C19 UNL     1     159.576 162.104 167.290  0.00  0.00    +0.000 C 
ENDBRANCH  22  25
ENDBRANCH  18  19
ENDBRANCH  17  18
ENDBRANCH  16  17
ENDBRANCH   3  16
TORSDOF 7
ENDMDL
MODEL 5
REMARK VINA RESULT:      -5.7      2.235      5.210
REMARK  Name = ./3D_structures\o34_MMV1634387_3D.pdb
REMARK  10 active torsions:
REMARK  status: ('A' for Active; 'I' for Inactive)
REMARK    1  A    between atoms: N1_3  and  C10_15
REMARK    2  A    between atoms: C2_5  and  C3_6
REMARK    3  A    between atoms: C3_6  and  O3_8
REMARK    4  A    between atoms: C10_15  and  C11_16
REMARK    5  A    between atoms: C11_16  and  O4_17
REMARK    6  A    between atoms: O4_17  and  C12_18
REMARK    7  A    between atoms: C15_21  and  C16_22
REMARK    8  A    between atoms: C16_22  and  C17_23
REMARK    9  A    between atoms: C16_22  and  C18_24
REMARK   10  A    between atoms: C16_22  and  C19_25
REMARK                            x       y       z     vdW  Elec       q    Type
REMARK                         _______ _______ _______ _____ _____    ______ ____
ROOT
ATOM      1  O1  UNL     1     159.813 160.322 167.367  0.00  0.00    +0.000 OA
ATOM      2  C1  UNL     1     159.027 159.720 168.134  0.00  0.00    +0.000 A 
ATOM      3  N1  UNL     1     158.644 158.445 167.957  0.00  0.00    +0.000 N 
ATOM      4  N2  UNL     1     157.826 157.820 168.752  0.00  0.00    +0.000 NA
ATOM      5  C2  UNL     1     157.269 158.414 169.866  0.00  0.00    +0.000 A 
ATOM      6  C4  UNL     1     157.628 159.720 170.092  0.00  0.00    +0.000 A 
ATOM      7  C5  UNL     1     158.509 160.391 169.235  0.00  0.00    +0.000 A 
ATOM      8  C6  UNL     1     158.828 161.697 169.508  0.00  0.00    +0.000 A 
ATOM      9  C7  UNL     1     158.343 162.413 170.578  0.00  0.00    +0.000 A 
ATOM     10  C8  UNL     1     157.478 161.757 171.419  0.00  0.00    +0.000 A 
ATOM     11  C9  UNL     1     157.130 160.421 171.171  0.00  0.00    +0.000 A 
ENDROOT
BRANCH   5  12
ATOM     12  C3  UNL     1     156.360 157.644 170.689  0.00  0.00    +0.000 C 
ATOM     13  O2  UNL     1     156.508 157.485 171.902  0.00  0.00    +0.000 OA
BRANCH  12  14
ATOM     14  O3  UNL     1     155.226 157.022 170.139  0.00  0.00    +0.000 OA
ATOM     15  H1  UNL     1     155.275 156.648 169.184  0.00  0.00    +0.000 HD
ENDBRANCH  12  14
ENDBRANCH   5  12
BRANCH   3  16
ATOM     16  C10 UNL     1     159.166 157.759 166.771  0.00  0.00    +0.000 C 
BRANCH  16  17
ATOM     17  C11 UNL     1     158.093 156.849 166.205  0.00  0.00    +0.000 C 
BRANCH  17  18
ATOM     18  O4  UNL     1     157.220 157.458 165.326  0.00  0.00    +0.000 OA
BRANCH  18  19
ATOM     19  C12 UNL     1     156.187 158.311 165.542  0.00  0.00    +0.000 A 
ATOM     20  C13 UNL     1     155.119 157.984 166.336  0.00  0.00    +0.000 A 
ATOM     21  C14 UNL     1     154.076 158.890 166.540  0.00  0.00    +0.000 A 
ATOM     22  C15 UNL     1     154.084 160.123 165.960  0.00  0.00    +0.000 A 
ATOM     23  C20 UNL     1     155.146 160.463 165.163  0.00  0.00    +0.000 A 
ATOM     24  C21 UNL     1     156.193 159.555 164.958  0.00  0.00    +0.000 A 
BRANCH  22  25
ATOM     25  C16 UNL     1     152.991 161.108 166.152  0.00  0.00    +0.000 C 
ATOM     26  C17 UNL     1     153.460 162.531 166.180  0.00  0.00    +0.000 C 
ATOM     27  C18 UNL     1     152.185 160.834 167.423  0.00  0.00    +0.000 C 
ATOM     28  C19 UNL     1     152.060 160.959 164.952  0.00  0.00    +0.000 C 
ENDBRANCH  22  25
ENDBRANCH  18  19
ENDBRANCH  17  18
ENDBRANCH  16  17
ENDBRANCH   3  16
TORSDOF 7
ENDMDL
MODEL 6
REMARK VINA RESULT:      -5.6      7.879     10.281
REMARK  Name = ./3D_structures\o34_MMV1634387_3D.pdb
REMARK  10 active torsions:
REMARK  status: ('A' for Active; 'I' for Inactive)
REMARK    1  A    between atoms: N1_3  and  C10_15
REMARK    2  A    between atoms: C2_5  and  C3_6
REMARK    3  A    between atoms: C3_6  and  O3_8
REMARK    4  A    between atoms: C10_15  and  C11_16
REMARK    5  A    between atoms: C11_16  and  O4_17
REMARK    6  A    between atoms: O4_17  and  C12_18
REMARK    7  A    between atoms: C15_21  and  C16_22
REMARK    8  A    between atoms: C16_22  and  C17_23
REMARK    9  A    between atoms: C16_22  and  C18_24
REMARK   10  A    between atoms: C16_22  and  C19_25
REMARK                            x       y       z     vdW  Elec       q    Type
REMARK                         _______ _______ _______ _____ _____    ______ ____
ROOT
ATOM      1  O1  UNL     1     145.817 162.266 169.198  0.00  0.00    +0.000 OA
ATOM      2  C1  UNL     1     145.757 163.255 168.430  0.00  0.00    +0.000 A 
ATOM      3  N1  UNL     1     146.083 164.504 168.799  0.00  0.00    +0.000 N 
ATOM      4  N2  UNL     1     146.019 165.531 168.002  0.00  0.00    +0.000 NA
ATOM      5  C2  UNL     1     145.608 165.431 166.690  0.00  0.00    +0.000 A 
ATOM      6  C4  UNL     1     145.262 164.173 166.262  0.00  0.00    +0.000 A 
ATOM      7  C5  UNL     1     145.331 163.070 167.121  0.00  0.00    +0.000 A 
ATOM      8  C6  UNL     1     144.968 161.837 166.641  0.00  0.00    +0.000 A 
ATOM      9  C7  UNL     1     144.535 161.594 165.358  0.00  0.00    +0.000 A 
ATOM     10  C8  UNL     1     144.465 162.675 164.515  0.00  0.00    +0.000 A 
ATOM     11  C9  UNL     1     144.829 163.951 164.971  0.00  0.00    +0.000 A 
ENDROOT
BRANCH   5  12
ATOM     12  C3  UNL     1     145.559 166.631 165.879  0.00  0.00    +0.000 C 
ATOM     13  O2  UNL     1     146.561 167.236 165.497  0.00  0.00    +0.000 OA
BRANCH  12  14
ATOM     14  O3  UNL     1     144.334 167.184 165.468  0.00  0.00    +0.000 OA
ATOM     15  H1  UNL     1     143.461 166.813 165.860  0.00  0.00    +0.000 HD
ENDBRANCH  12  14
ENDBRANCH   5  12
BRANCH   3  16
ATOM     16  C10 UNL     1     146.494 164.694 170.193  0.00  0.00    +0.000 C 
BRANCH  16  17
ATOM     17  C11 UNL     1     147.889 165.288 170.228  0.00  0.00    +0.000 C 
BRANCH  17  18
ATOM     18  O4  UNL     1     148.811 164.651 169.422  0.00  0.00    +0.000 OA
BRANCH  18  19
ATOM     19  C12 UNL     1     149.569 163.546 169.636  0.00  0.00    +0.000 A 
ATOM     20  C13 UNL     1     149.334 162.359 168.992  0.00  0.00    +0.000 A 
ATOM     21  C14 UNL     1     150.138 161.243 169.234  0.00  0.00    +0.000 A 
ATOM     22  C15 UNL     1     151.177 161.295 170.113  0.00  0.00    +0.000 A 
ATOM     23  C20 UNL     1     151.424 162.476 170.764  0.00  0.00    +0.000 A 
ATOM     24  C21 UNL     1     150.617 163.596 170.523  0.00  0.00    +0.000 A 
BRANCH  22  25
ATOM     25  C16 UNL     1     152.049 160.128 170.397  0.00  0.00    +0.000 C 
ATOM     26  C17 UNL     1     153.507 160.396 170.177  0.00  0.00    +0.000 C 
ATOM     27  C18 UNL     1     151.649 158.898 169.580  0.00  0.00    +0.000 C 
ATOM     28  C19 UNL     1     151.864 159.802 171.876  0.00  0.00    +0.000 C 
ENDBRANCH  22  25
ENDBRANCH  18  19
ENDBRANCH  17  18
ENDBRANCH  16  17
ENDBRANCH   3  16
TORSDOF 7
ENDMDL
MODEL 7
REMARK VINA RESULT:      -5.6      1.914      4.678
REMARK  Name = ./3D_structures\o34_MMV1634387_3D.pdb
REMARK  10 active torsions:
REMARK  status: ('A' for Active; 'I' for Inactive)
REMARK    1  A    between atoms: N1_3  and  C10_15
REMARK    2  A    between atoms: C2_5  and  C3_6
REMARK    3  A    between atoms: C3_6  and  O3_8
REMARK    4  A    between atoms: C10_15  and  C11_16
REMARK    5  A    between atoms: C11_16  and  O4_17
REMARK    6  A    between atoms: O4_17  and  C12_18
REMARK    7  A    between atoms: C15_21  and  C16_22
REMARK    8  A    between atoms: C16_22  and  C17_23
REMARK    9  A    between atoms: C16_22  and  C18_24
REMARK   10  A    between atoms: C16_22  and  C19_25
REMARK                            x       y       z     vdW  Elec       q    Type
REMARK                         _______ _______ _______ _____ _____    ______ ____
ROOT
ATOM      1  O1  UNL     1     156.530 158.795 165.327  0.00  0.00    +0.000 OA
ATOM      2  C1  UNL     1     155.779 158.715 166.327  0.00  0.00    +0.000 A 
ATOM      3  N1  UNL     1     156.034 157.935 167.389  0.00  0.00    +0.000 N 
ATOM      4  N2  UNL     1     155.253 157.850 168.427  0.00  0.00    +0.000 NA
ATOM      5  C2  UNL     1     154.077 158.563 168.534  0.00  0.00    +0.000 A 
ATOM      6  C4  UNL     1     153.768 159.377 167.472  0.00  0.00    +0.000 A 
ATOM      7  C5  UNL     1     154.610 159.466 166.357  0.00  0.00    +0.000 A 
ATOM      8  C6  UNL     1     154.249 160.292 165.322  0.00  0.00    +0.000 A 
ATOM      9  C7  UNL     1     153.104 161.054 165.294  0.00  0.00    +0.000 A 
ATOM     10  C8  UNL     1     152.276 160.966 166.386  0.00  0.00    +0.000 A 
ATOM     11  C9  UNL     1     152.614 160.133 167.463  0.00  0.00    +0.000 A 
ENDROOT
BRANCH   5  12
ATOM     12  C3  UNL     1     153.265 158.399 169.723  0.00  0.00    +0.000 C 
ATOM     13  O2  UNL     1     153.273 159.189 170.668  0.00  0.00    +0.000 OA
BRANCH  12  14
ATOM     14  O3  UNL     1     152.396 157.304 169.867  0.00  0.00    +0.000 OA
ATOM     15  H1  UNL     1     151.890 156.955 169.045  0.00  0.00    +0.000 HD
ENDBRANCH  12  14
ENDBRANCH   5  12
BRANCH   3  16
ATOM     16  C10 UNL     1     157.249 157.118 167.331  0.00  0.00    +0.000 C 
BRANCH  16  17
ATOM     17  C11 UNL     1     158.450 157.979 167.669  0.00  0.00    +0.000 C 
BRANCH  17  18
ATOM     18  O4  UNL     1     158.697 158.129 169.020  0.00  0.00    +0.000 OA
BRANCH  18  19
ATOM     19  C12 UNL     1     158.006 158.789 169.984  0.00  0.00    +0.000 A 
ATOM     20  C13 UNL     1     157.333 158.134 170.982  0.00  0.00    +0.000 A 
ATOM     21  C14 UNL     1     156.636 158.847 171.960  0.00  0.00    +0.000 A 
ATOM     22  C15 UNL     1     156.602 160.209 171.956  0.00  0.00    +0.000 A 
ATOM     23  C20 UNL     1     157.271 160.876 170.963  0.00  0.00    +0.000 A 
ATOM     24  C21 UNL     1     157.970 160.162 169.981  0.00  0.00    +0.000 A 
BRANCH  22  25
ATOM     25  C16 UNL     1     155.868 160.997 172.978  0.00  0.00    +0.000 C 
ATOM     26  C17 UNL     1     154.768 161.841 172.411  0.00  0.00    +0.000 C 
ATOM     27  C18 UNL     1     156.802 161.894 173.793  0.00  0.00    +0.000 C 
ATOM     28  C19 UNL     1     155.227 159.987 173.924  0.00  0.00    +0.000 C 
ENDBRANCH  22  25
ENDBRANCH  18  19
ENDBRANCH  17  18
ENDBRANCH  16  17
ENDBRANCH   3  16
TORSDOF 7
ENDMDL
MODEL 8
REMARK VINA RESULT:      -5.6      3.888      6.668
REMARK  Name = ./3D_structures\o34_MMV1634387_3D.pdb
REMARK  10 active torsions:
REMARK  status: ('A' for Active; 'I' for Inactive)
REMARK    1  A    between atoms: N1_3  and  C10_15
REMARK    2  A    between atoms: C2_5  and  C3_6
REMARK    3  A    between atoms: C3_6  and  O3_8
REMARK    4  A    between atoms: C10_15  and  C11_16
REMARK    5  A    between atoms: C11_16  and  O4_17
REMARK    6  A    between atoms: O4_17  and  C12_18
REMARK    7  A    between atoms: C15_21  and  C16_22
REMARK    8  A    between atoms: C16_22  and  C17_23
REMARK    9  A    between atoms: C16_22  and  C18_24
REMARK   10  A    between atoms: C16_22  and  C19_25
REMARK                            x       y       z     vdW  Elec       q    Type
REMARK                         _______ _______ _______ _____ _____    ______ ____
ROOT
ATOM      1  O1  UNL     1     155.291 156.840 167.071  0.00  0.00    +0.000 OA
ATOM      2  C1  UNL     1     156.464 157.262 167.201  0.00  0.00    +0.000 A 
ATOM      3  N1  UNL     1     157.339 157.351 166.187  0.00  0.00    +0.000 N 
ATOM      4  N2  UNL     1     158.558 157.788 166.323  0.00  0.00    +0.000 NA
ATOM      5  C2  UNL     1     159.069 158.206 167.533  0.00  0.00    +0.000 A 
ATOM      6  C4  UNL     1     158.213 158.134 168.604  0.00  0.00    +0.000 A 
ATOM      7  C5  UNL     1     156.903 157.664 168.456  0.00  0.00    +0.000 A 
ATOM      8  C6  UNL     1     156.093 157.609 169.563  0.00  0.00    +0.000 A 
ATOM      9  C7  UNL     1     156.473 157.988 170.829  0.00  0.00    +0.000 A 
ATOM     10  C8  UNL     1     157.758 158.448 170.976  0.00  0.00    +0.000 A 
ATOM     11  C9  UNL     1     158.614 158.519 169.867  0.00  0.00    +0.000 A 
ENDROOT
BRANCH   5  12
ATOM     12  C3  UNL     1     160.441 158.668 167.592  0.00  0.00    +0.000 C 
ATOM     13  O2  UNL     1     160.765 159.854 167.509  0.00  0.00    +0.000 OA
BRANCH  12  14
ATOM     14  O3  UNL     1     161.508 157.768 167.754  0.00  0.00    +0.000 OA
ATOM     15  H1  UNL     1     162.442 158.034 167.420  0.00  0.00    +0.000 HD
ENDBRANCH  12  14
ENDBRANCH   5  12
BRANCH   3  16
ATOM     16  C10 UNL     1     156.879 156.888 164.875  0.00  0.00    +0.000 C 
BRANCH  16  17
ATOM     17  C11 UNL     1     157.906 157.260 163.823  0.00  0.00    +0.000 C 
BRANCH  17  18
ATOM     18  O4  UNL     1     158.570 156.190 163.255  0.00  0.00    +0.000 OA
BRANCH  18  19
ATOM     19  C12 UNL     1     158.425 154.853 163.438  0.00  0.00    +0.000 A 
ATOM     20  C13 UNL     1     157.595 154.092 162.657  0.00  0.00    +0.000 A 
ATOM     21  C14 UNL     1     157.475 152.717 162.871  0.00  0.00    +0.000 A 
ATOM     22  C15 UNL     1     158.174 152.089 163.857  0.00  0.00    +0.000 A 
ATOM     23  C20 UNL     1     159.008 152.839 164.646  0.00  0.00    +0.000 A 
ATOM     24  C21 UNL     1     159.129 154.218 164.432  0.00  0.00    +0.000 A 
BRANCH  22  25
ATOM     25  C16 UNL     1     158.067 150.631 164.115  0.00  0.00    +0.000 C 
ATOM     26  C17 UNL     1     156.659 150.121 164.114  0.00  0.00    +0.000 C 
ATOM     27  C18 UNL     1     158.732 150.230 165.434  0.00  0.00    +0.000 C 
ATOM     28  C19 UNL     1     158.805 149.936 162.975  0.00  0.00    +0.000 C 
ENDBRANCH  22  25
ENDBRANCH  18  19
ENDBRANCH  17  18
ENDBRANCH  16  17
ENDBRANCH   3  16
TORSDOF 7
ENDMDL
MODEL 9
REMARK VINA RESULT:      -5.5      2.266      6.253
REMARK  Name = ./3D_structures\o34_MMV1634387_3D.pdb
REMARK  10 active torsions:
REMARK  status: ('A' for Active; 'I' for Inactive)
REMARK    1  A    between atoms: N1_3  and  C10_15
REMARK    2  A    between atoms: C2_5  and  C3_6
REMARK    3  A    between atoms: C3_6  and  O3_8
REMARK    4  A    between atoms: C10_15  and  C11_16
REMARK    5  A    between atoms: C11_16  and  O4_17
REMARK    6  A    between atoms: O4_17  and  C12_18
REMARK    7  A    between atoms: C15_21  and  C16_22
REMARK    8  A    between atoms: C16_22  and  C17_23
REMARK    9  A    between atoms: C16_22  and  C18_24
REMARK   10  A    between atoms: C16_22  and  C19_25
REMARK                            x       y       z     vdW  Elec       q    Type
REMARK                         _______ _______ _______ _____ _____    ______ ____
ROOT
ATOM      1  O1  UNL     1     156.420 157.397 171.170  0.00  0.00    +0.000 OA
ATOM      2  C1  UNL     1     156.850 158.550 170.934  0.00  0.00    +0.000 A 
ATOM      3  N1  UNL     1     157.564 158.869 169.843  0.00  0.00    +0.000 N 
ATOM      4  N2  UNL     1     158.012 160.066 169.598  0.00  0.00    +0.000 NA
ATOM      5  C2  UNL     1     157.791 161.132 170.446  0.00  0.00    +0.000 A 
ATOM      6  C4  UNL     1     157.065 160.858 171.578  0.00  0.00    +0.000 A 
ATOM      7  C5  UNL     1     156.584 159.570 171.840  0.00  0.00    +0.000 A 
ATOM      8  C6  UNL     1     155.869 159.354 172.990  0.00  0.00    +0.000 A 
ATOM      9  C7  UNL     1     155.580 160.321 173.925  0.00  0.00    +0.000 A 
ATOM     10  C8  UNL     1     156.051 161.585 173.670  0.00  0.00    +0.000 A 
ATOM     11  C9  UNL     1     156.786 161.843 172.504  0.00  0.00    +0.000 A 
ENDROOT
BRANCH   5  12
ATOM     12  C3  UNL     1     158.337 162.428 170.097  0.00  0.00    +0.000 C 
ATOM     13  O2  UNL     1     159.505 162.755 170.310  0.00  0.00    +0.000 OA
BRANCH  12  14
ATOM     14  O3  UNL     1     157.545 163.410 169.476  0.00  0.00    +0.000 OA
ATOM     15  H1  UNL     1     156.536 163.430 169.663  0.00  0.00    +0.000 HD
ENDBRANCH  12  14
ENDBRANCH   5  12
BRANCH   3  16
ATOM     16  C10 UNL     1     157.872 157.778 168.914  0.00  0.00    +0.000 C 
BRANCH  16  17
ATOM     17  C11 UNL     1     157.361 158.138 167.532  0.00  0.00    +0.000 C 
BRANCH  17  18
ATOM     18  O4  UNL     1     156.026 157.860 167.315  0.00  0.00    +0.000 OA
BRANCH  18  19
ATOM     19  C12 UNL     1     154.913 158.263 167.978  0.00  0.00    +0.000 A 
ATOM     20  C13 UNL     1     154.503 159.570 167.998  0.00  0.00    +0.000 A 
ATOM     21  C14 UNL     1     153.349 159.947 168.688  0.00  0.00    +0.000 A 
ATOM     22  C15 UNL     1     152.595 159.034 169.361  0.00  0.00    +0.000 A 
ATOM     23  C20 UNL     1     152.994 157.722 169.350  0.00  0.00    +0.000 A 
ATOM     24  C21 UNL     1     154.152 157.343 168.659  0.00  0.00    +0.000 A 
BRANCH  22  25
ATOM     25  C16 UNL     1     151.366 159.400 170.108  0.00  0.00    +0.000 C 
ATOM     26  C17 UNL     1     150.739 158.251 170.837  0.00  0.00    +0.000 C 
ATOM     27  C18 UNL     1     150.311 160.039 169.203  0.00  0.00    +0.000 C 
ATOM     28  C19 UNL     1     151.787 160.428 171.154  0.00  0.00    +0.000 C 
ENDBRANCH  22  25
ENDBRANCH  18  19
ENDBRANCH  17  18
ENDBRANCH  16  17
ENDBRANCH   3  16
TORSDOF 7
ENDMDL
