MODEL 1
REMARK VINA RESULT:      -6.6      0.000      0.000
REMARK  Name = ./3D_structures\o35_MMV1633966_3D.pdb
REMARK  4 active torsions:
REMARK  status: ('A' for Active; 'I' for Inactive)
REMARK    1  A    between atoms: C16_20  and  O1_21
REMARK    2  A    between atoms: O1_21  and  C17_22
REMARK    3  A    between atoms: C17_22  and  C18_23
REMARK    4  A    between atoms: C18_23  and  N3_24
REMARK                            x       y       z     vdW  Elec       q    Type
REMARK                         _______ _______ _______ _____ _____    ______ ____
ROOT
ATOM      1 CL1  UNL     1     142.455 163.115 166.965  0.00  0.00    +0.000 Cl
ATOM      2  C1  UNL     1     143.970 163.919 166.684  0.00  0.00    +0.000 A 
ATOM      3  C2  UNL     1     145.124 163.306 167.075  0.00  0.00    +0.000 A 
ATOM      4  C3  UNL     1     146.324 163.962 166.843  0.00  0.00    +0.000 A 
ATOM      5  C4  UNL     1     146.393 165.195 166.238  0.00  0.00    +0.000 A 
ATOM      6  N1  UNL     1     147.684 165.554 166.159  0.00  0.00    +0.000 N 
ATOM      7  C5  UNL     1     148.449 164.575 166.702  0.00  0.00    +0.000 A 
ATOM      8  C6  UNL     1     147.613 163.572 167.135  0.00  0.00    +0.000 A 
ATOM      9  C7  UNL     1     148.147 162.428 167.741  0.00  0.00    +0.000 A 
ATOM     10  C8  UNL     1     149.514 162.372 167.873  0.00  0.00    +0.000 A 
ATOM     11  C9  UNL     1     150.351 161.397 168.420  0.00  0.00    +0.000 A 
ATOM     12  C10 UNL     1     151.670 161.789 168.327  0.00  0.00    +0.000 A 
ATOM     13  C11 UNL     1     152.676 160.977 168.805  0.00  0.00    +0.000 A 
ATOM     14  C12 UNL     1     152.387 159.763 169.384  0.00  0.00    +0.000 A 
ATOM     15  C13 UNL     1     151.072 159.358 169.483  0.00  0.00    +0.000 A 
ATOM     16  C14 UNL     1     150.067 160.183 168.998  0.00  0.00    +0.000 A 
ATOM     17 CL2  UNL     1     150.659 157.821 170.211  0.00  0.00    +0.000 Cl
ATOM     18  N2  UNL     1     151.653 163.005 167.723  0.00  0.00    +0.000 N 
ATOM     19  C15 UNL     1     150.368 163.366 167.447  0.00  0.00    +0.000 A 
ATOM     20  C16 UNL     1     149.837 164.489 166.851  0.00  0.00    +0.000 A 
ATOM     21  C20 UNL     1     145.209 165.825 165.837  0.00  0.00    +0.000 A 
ATOM     22  C21 UNL     1     144.023 165.160 166.074  0.00  0.00    +0.000 A 
ATOM     23  H2  UNL     1     148.063 166.449 165.746  0.00  0.00    +0.000 HD
ATOM     24  H7  UNL     1     152.491 163.558 167.514  0.00  0.00    +0.000 HD
ENDROOT
BRANCH  20  25
ATOM     25  O1  UNL     1     150.637 165.523 166.400  0.00  0.00    +0.000 OA
BRANCH  25  26
ATOM     26  C17 UNL     1     150.894 165.643 165.024  0.00  0.00    +0.000 C 
BRANCH  26  27
ATOM     27  C18 UNL     1     152.379 165.779 164.746  0.00  0.00    +0.000 C 
BRANCH  27  28
ATOM     28  N3  UNL     1     153.059 164.561 165.131  0.00  0.00    +0.000 N 
ATOM     29  N4  UNL     1     153.896 164.460 166.142  0.00  0.00    +0.000 NA
ATOM     30  N5  UNL     1     154.356 163.230 166.246  0.00  0.00    +0.000 NA
ATOM     31  N6  UNL     1     153.788 162.543 165.267  0.00  0.00    +0.000 NA
ATOM     32  C19 UNL     1     152.977 163.348 164.559  0.00  0.00    +0.000 A 
ATOM     33  N7  UNL     1     152.207 162.978 163.450  0.00  0.00    +0.000 N 
ATOM     34  H12 UNL     1     152.316 163.487 162.543  0.00  0.00    +0.000 HD
ATOM     35  H13 UNL     1     151.502 162.190 163.483  0.00  0.00    +0.000 HD
ENDBRANCH  27  28
ENDBRANCH  26  27
ENDBRANCH  25  26
ENDBRANCH  20  25
TORSDOF 4
ENDMDL
MODEL 2
REMARK VINA RESULT:      -6.4      9.048     12.333
REMARK  Name = ./3D_structures\o35_MMV1633966_3D.pdb
REMARK  4 active torsions:
REMARK  status: ('A' for Active; 'I' for Inactive)
REMARK    1  A    between atoms: C16_20  and  O1_21
REMARK    2  A    between atoms: O1_21  and  C17_22
REMARK    3  A    between atoms: C17_22  and  C18_23
REMARK    4  A    between atoms: C18_23  and  N3_24
REMARK                            x       y       z     vdW  Elec       q    Type
REMARK                         _______ _______ _______ _____ _____    ______ ____
ROOT
ATOM      1 CL1  UNL     1     156.304 159.894 172.847  0.00  0.00    +0.000 Cl
ATOM      2  C1  UNL     1     156.191 159.284 171.224  0.00  0.00    +0.000 A 
ATOM      3  C2  UNL     1     157.339 159.049 170.525  0.00  0.00    +0.000 A 
ATOM      4  C3  UNL     1     157.228 158.562 169.231  0.00  0.00    +0.000 A 
ATOM      5  C4  UNL     1     156.018 158.308 168.631  0.00  0.00    +0.000 A 
ATOM      6  N1  UNL     1     156.249 157.849 167.391  0.00  0.00    +0.000 N 
ATOM      7  C5  UNL     1     157.588 157.802 167.180  0.00  0.00    +0.000 A 
ATOM      8  C6  UNL     1     158.214 158.246 168.321  0.00  0.00    +0.000 A 
ATOM      9  C7  UNL     1     159.613 158.299 168.376  0.00  0.00    +0.000 A 
ATOM     10  C8  UNL     1     160.297 157.896 167.255  0.00  0.00    +0.000 A 
ATOM     11  C9  UNL     1     161.665 157.826 166.981  0.00  0.00    +0.000 A 
ATOM     12  C10 UNL     1     161.876 157.352 165.703  0.00  0.00    +0.000 A 
ATOM     13  C11 UNL     1     163.157 157.200 165.216  0.00  0.00    +0.000 A 
ATOM     14  C12 UNL     1     164.247 157.517 165.992  0.00  0.00    +0.000 A 
ATOM     15  C13 UNL     1     164.052 157.992 167.273  0.00  0.00    +0.000 A 
ATOM     16  C14 UNL     1     162.758 158.140 167.752  0.00  0.00    +0.000 A 
ATOM     17 CL2  UNL     1     165.411 158.406 168.293  0.00  0.00    +0.000 Cl
ATOM     18  N2  UNL     1     160.642 157.127 165.184  0.00  0.00    +0.000 N 
ATOM     19  C15 UNL     1     159.688 157.449 166.102  0.00  0.00    +0.000 A 
ATOM     20  C16 UNL     1     158.312 157.398 166.054  0.00  0.00    +0.000 A 
ATOM     21  C20 UNL     1     154.839 158.549 169.348  0.00  0.00    +0.000 A 
ATOM     22  C21 UNL     1     154.963 159.033 170.634  0.00  0.00    +0.000 A 
ATOM     23  H2  UNL     1     155.521 157.567 166.681  0.00  0.00    +0.000 HD
ATOM     24  H7  UNL     1     160.469 156.769 164.238  0.00  0.00    +0.000 HD
ENDROOT
BRANCH  20  25
ATOM     25  O1  UNL     1     157.636 156.961 164.929  0.00  0.00    +0.000 OA
BRANCH  25  26
ATOM     26  C17 UNL     1     157.175 155.634 164.878  0.00  0.00    +0.000 C 
BRANCH  26  27
ATOM     27  C18 UNL     1     157.698 154.911 163.652  0.00  0.00    +0.000 C 
BRANCH  27  28
ATOM     28  N3  UNL     1     158.010 153.540 163.993  0.00  0.00    +0.000 N 
ATOM     29  N4  UNL     1     159.001 153.172 164.779  0.00  0.00    +0.000 NA
ATOM     30  N5  UNL     1     159.036 151.861 164.902  0.00  0.00    +0.000 NA
ATOM     31  N6  UNL     1     158.036 151.397 164.170  0.00  0.00    +0.000 NA
ATOM     32  C19 UNL     1     157.382 152.421 163.593  0.00  0.00    +0.000 A 
ATOM     33  N7  UNL     1     156.271 152.322 162.748  0.00  0.00    +0.000 N 
ATOM     34  H12 UNL     1     156.300 152.744 161.791  0.00  0.00    +0.000 HD
ATOM     35  H13 UNL     1     155.379 151.830 163.034  0.00  0.00    +0.000 HD
ENDBRANCH  27  28
ENDBRANCH  26  27
ENDBRANCH  25  26
ENDBRANCH  20  25
TORSDOF 4
ENDMDL
MODEL 3
REMARK VINA RESULT:      -6.4      6.400      9.045
REMARK  Name = ./3D_structures\o35_MMV1633966_3D.pdb
REMARK  4 active torsions:
REMARK  status: ('A' for Active; 'I' for Inactive)
REMARK    1  A    between atoms: C16_20  and  O1_21
REMARK    2  A    between atoms: O1_21  and  C17_22
REMARK    3  A    between atoms: C17_22  and  C18_23
REMARK    4  A    between atoms: C18_23  and  N3_24
REMARK                            x       y       z     vdW  Elec       q    Type
REMARK                         _______ _______ _______ _____ _____    ______ ____
ROOT
ATOM      1 CL1  UNL     1     153.335 164.725 163.785  0.00  0.00    +0.000 Cl
ATOM      2  C1  UNL     1     153.162 163.315 164.786  0.00  0.00    +0.000 A 
ATOM      3  C2  UNL     1     154.098 162.327 164.700  0.00  0.00    +0.000 A 
ATOM      4  C3  UNL     1     153.944 161.209 165.507  0.00  0.00    +0.000 A 
ATOM      5  C4  UNL     1     152.895 161.062 166.383  0.00  0.00    +0.000 A 
ATOM      6  N1  UNL     1     153.032 159.883 167.011  0.00  0.00    +0.000 N 
ATOM      7  C5  UNL     1     154.151 159.267 166.555  0.00  0.00    +0.000 A 
ATOM      8  C6  UNL     1     154.733 160.084 165.614  0.00  0.00    +0.000 A 
ATOM      9  C7  UNL     1     155.915 159.686 164.977  0.00  0.00    +0.000 A 
ATOM     10  C8  UNL     1     156.440 158.468 165.339  0.00  0.00    +0.000 A 
ATOM     11  C9  UNL     1     157.581 157.788 164.908  0.00  0.00    +0.000 A 
ATOM     12  C10 UNL     1     157.699 156.582 165.567  0.00  0.00    +0.000 A 
ATOM     13  C11 UNL     1     158.756 155.739 165.299  0.00  0.00    +0.000 A 
ATOM     14  C12 UNL     1     159.712 156.082 164.372  0.00  0.00    +0.000 A 
ATOM     15  C13 UNL     1     159.608 157.285 163.705  0.00  0.00    +0.000 A 
ATOM     16  C14 UNL     1     158.539 158.126 163.983  0.00  0.00    +0.000 A 
ATOM     17 CL2  UNL     1     160.802 157.760 162.518  0.00  0.00    +0.000 Cl
ATOM     18  N2  UNL     1     156.634 156.513 166.406  0.00  0.00    +0.000 N 
ATOM     19  C15 UNL     1     155.872 157.636 166.279  0.00  0.00    +0.000 A 
ATOM     20  C16 UNL     1     154.709 158.033 166.903  0.00  0.00    +0.000 A 
ATOM     21  C20 UNL     1     151.934 162.076 166.472  0.00  0.00    +0.000 A 
ATOM     22  C21 UNL     1     152.100 163.182 165.663  0.00  0.00    +0.000 A 
ATOM     23  H2  UNL     1     152.384 159.482 167.741  0.00  0.00    +0.000 HD
ATOM     24  H7  UNL     1     156.444 155.725 167.035  0.00  0.00    +0.000 HD
ENDROOT
BRANCH  20  25
ATOM     25  O1  UNL     1     154.086 157.246 167.855  0.00  0.00    +0.000 OA
BRANCH  25  26
ATOM     26  C17 UNL     1     154.742 156.994 169.072  0.00  0.00    +0.000 C 
BRANCH  26  27
ATOM     27  C18 UNL     1     155.043 158.280 169.817  0.00  0.00    +0.000 C 
BRANCH  27  28
ATOM     28  N3  UNL     1     156.434 158.294 170.220  0.00  0.00    +0.000 N 
ATOM     29  N4  UNL     1     157.440 157.948 169.444  0.00  0.00    +0.000 NA
ATOM     30  N5  UNL     1     158.584 158.063 170.085  0.00  0.00    +0.000 NA
ATOM     31  N6  UNL     1     158.281 158.495 171.300  0.00  0.00    +0.000 NA
ATOM     32  C19 UNL     1     156.950 158.647 171.409  0.00  0.00    +0.000 A 
ATOM     33  N7  UNL     1     156.258 159.085 172.544  0.00  0.00    +0.000 N 
ATOM     34  H12 UNL     1     155.500 158.493 172.957  0.00  0.00    +0.000 HD
ATOM     35  H13 UNL     1     156.466 160.007 173.018  0.00  0.00    +0.000 HD
ENDBRANCH  27  28
ENDBRANCH  26  27
ENDBRANCH  25  26
ENDBRANCH  20  25
TORSDOF 4
ENDMDL
MODEL 4
REMARK VINA RESULT:      -6.3      9.008     13.150
REMARK  Name = ./3D_structures\o35_MMV1633966_3D.pdb
REMARK  4 active torsions:
REMARK  status: ('A' for Active; 'I' for Inactive)
REMARK    1  A    between atoms: C16_20  and  O1_21
REMARK    2  A    between atoms: O1_21  and  C17_22
REMARK    3  A    between atoms: C17_22  and  C18_23
REMARK    4  A    between atoms: C18_23  and  N3_24
REMARK                            x       y       z     vdW  Elec       q    Type
REMARK                         _______ _______ _______ _____ _____    ______ ____
ROOT
ATOM      1 CL1  UNL     1     165.375 158.318 168.325  0.00  0.00    +0.000 Cl
ATOM      2  C1  UNL     1     164.001 157.930 167.333  0.00  0.00    +0.000 A 
ATOM      3  C2  UNL     1     162.748 158.134 167.833  0.00  0.00    +0.000 A 
ATOM      4  C3  UNL     1     161.664 157.818 167.027  0.00  0.00    +0.000 A 
ATOM      5  C4  UNL     1     161.803 157.313 165.755  0.00  0.00    +0.000 A 
ATOM      6  N1  UNL     1     160.578 157.115 165.243  0.00  0.00    +0.000 N 
ATOM      7  C5  UNL     1     159.651 157.484 166.162  0.00  0.00    +0.000 A 
ATOM      8  C6  UNL     1     160.314 157.925 167.283  0.00  0.00    +0.000 A 
ATOM      9  C7  UNL     1     159.589 158.371 168.396  0.00  0.00    +0.000 A 
ATOM     10  C8  UNL     1     158.218 158.338 168.301  0.00  0.00    +0.000 A 
ATOM     11  C9  UNL     1     157.220 158.702 169.208  0.00  0.00    +0.000 A 
ATOM     12  C10 UNL     1     155.973 158.490 168.659  0.00  0.00    +0.000 A 
ATOM     13  C11 UNL     1     154.834 158.781 169.379  0.00  0.00    +0.000 A 
ATOM     14  C12 UNL     1     154.917 159.287 170.655  0.00  0.00    +0.000 A 
ATOM     15  C13 UNL     1     156.158 159.505 171.217  0.00  0.00    +0.000 A 
ATOM     16  C14 UNL     1     157.298 159.209 170.483  0.00  0.00    +0.000 A 
ATOM     17 CL2  UNL     1     156.310 160.148 172.837  0.00  0.00    +0.000 Cl
ATOM     18  N2  UNL     1     156.195 157.996 167.415  0.00  0.00    +0.000 N 
ATOM     19  C15 UNL     1     157.536 157.900 167.187  0.00  0.00    +0.000 A 
ATOM     20  C16 UNL     1     158.254 157.463 166.096  0.00  0.00    +0.000 A 
ATOM     21  C20 UNL     1     163.089 157.103 165.243  0.00  0.00    +0.000 A 
ATOM     22  C21 UNL     1     164.158 157.422 166.055  0.00  0.00    +0.000 A 
ATOM     23  H2  UNL     1     160.352 156.735 164.286  0.00  0.00    +0.000 HD
ATOM     24  H7  UNL     1     155.454 157.736 166.754  0.00  0.00    +0.000 HD
ENDROOT
BRANCH  20  25
ATOM     25  O1  UNL     1     157.632 157.010 164.947  0.00  0.00    +0.000 OA
BRANCH  25  26
ATOM     26  C17 UNL     1     157.240 155.663 164.865  0.00  0.00    +0.000 C 
BRANCH  26  27
ATOM     27  C18 UNL     1     157.712 155.025 163.572  0.00  0.00    +0.000 C 
BRANCH  27  28
ATOM     28  N3  UNL     1     158.833 154.150 163.843  0.00  0.00    +0.000 N 
ATOM     29  N4  UNL     1     160.091 154.537 163.879  0.00  0.00    +0.000 NA
ATOM     30  N5  UNL     1     160.885 153.522 164.148  0.00  0.00    +0.000 NA
ATOM     31  N6  UNL     1     160.096 152.467 164.285  0.00  0.00    +0.000 NA
ATOM     32  C19 UNL     1     158.815 152.831 164.100  0.00  0.00    +0.000 A 
ATOM     33  N7  UNL     1     157.698 151.990 164.165  0.00  0.00    +0.000 N 
ATOM     34  H12 UNL     1     157.044 151.923 163.351  0.00  0.00    +0.000 HD
ATOM     35  H13 UNL     1     157.475 151.404 165.016  0.00  0.00    +0.000 HD
ENDBRANCH  27  28
ENDBRANCH  26  27
ENDBRANCH  25  26
ENDBRANCH  20  25
TORSDOF 4
ENDMDL
MODEL 5
REMARK VINA RESULT:      -6.3      6.779     11.044
REMARK  Name = ./3D_structures\o35_MMV1633966_3D.pdb
REMARK  4 active torsions:
REMARK  status: ('A' for Active; 'I' for Inactive)
REMARK    1  A    between atoms: C16_20  and  O1_21
REMARK    2  A    between atoms: O1_21  and  C17_22
REMARK    3  A    between atoms: C17_22  and  C18_23
REMARK    4  A    between atoms: C18_23  and  N3_24
REMARK                            x       y       z     vdW  Elec       q    Type
REMARK                         _______ _______ _______ _____ _____    ______ ____
ROOT
ATOM      1 CL1  UNL     1     161.324 156.647 162.241  0.00  0.00    +0.000 Cl
ATOM      2  C1  UNL     1     160.011 156.452 163.363  0.00  0.00    +0.000 A 
ATOM      3  C2  UNL     1     159.153 157.494 163.561  0.00  0.00    +0.000 A 
ATOM      4  C3  UNL     1     158.111 157.320 164.460  0.00  0.00    +0.000 A 
ATOM      5  C4  UNL     1     157.912 156.148 165.152  0.00  0.00    +0.000 A 
ATOM      6  N1  UNL     1     156.830 156.298 165.934  0.00  0.00    +0.000 N 
ATOM      7  C5  UNL     1     156.328 157.546 165.758  0.00  0.00    +0.000 A 
ATOM      8  C6  UNL     1     157.118 158.198 164.840  0.00  0.00    +0.000 A 
ATOM      9  C7  UNL     1     156.821 159.516 164.471  0.00  0.00    +0.000 A 
ATOM     10  C8  UNL     1     155.727 160.098 165.065  0.00  0.00    +0.000 A 
ATOM     11  C9  UNL     1     155.166 161.370 164.925  0.00  0.00    +0.000 A 
ATOM     12  C10 UNL     1     154.059 161.498 165.736  0.00  0.00    +0.000 A 
ATOM     13  C11 UNL     1     153.343 162.676 165.760  0.00  0.00    +0.000 A 
ATOM     14  C12 UNL     1     153.717 163.744 164.979  0.00  0.00    +0.000 A 
ATOM     15  C13 UNL     1     154.822 163.630 164.161  0.00  0.00    +0.000 A 
ATOM     16  C14 UNL     1     155.535 162.440 164.145  0.00  0.00    +0.000 A 
ATOM     17 CL2  UNL     1     155.333 164.963 163.150  0.00  0.00    +0.000 Cl
ATOM     18  N2  UNL     1     153.931 160.310 166.379  0.00  0.00    +0.000 N 
ATOM     19  C15 UNL     1     154.924 159.463 165.987  0.00  0.00    +0.000 A 
ATOM     20  C16 UNL     1     155.221 158.166 166.346  0.00  0.00    +0.000 A 
ATOM     21  C20 UNL     1     158.792 155.079 164.949  0.00  0.00    +0.000 A 
ATOM     22  C21 UNL     1     159.824 155.266 164.052  0.00  0.00    +0.000 A 
ATOM     23  H2  UNL     1     156.423 155.576 166.586  0.00  0.00    +0.000 HD
ATOM     24  H7  UNL     1     153.192 160.096 167.059  0.00  0.00    +0.000 HD
ENDROOT
BRANCH  20  25
ATOM     25  O1  UNL     1     154.457 157.470 167.265  0.00  0.00    +0.000 OA
BRANCH  25  26
ATOM     26  C17 UNL     1     154.994 157.191 168.533  0.00  0.00    +0.000 C 
BRANCH  26  27
ATOM     27  C18 UNL     1     155.297 158.464 169.300  0.00  0.00    +0.000 C 
BRANCH  27  28
ATOM     28  N3  UNL     1     156.639 158.400 169.838  0.00  0.00    +0.000 N 
ATOM     29  N4  UNL     1     157.724 158.207 169.118  0.00  0.00    +0.000 NA
ATOM     30  N5  UNL     1     158.796 158.197 169.883  0.00  0.00    +0.000 NA
ATOM     31  N6  UNL     1     158.365 158.391 171.119  0.00  0.00    +0.000 NA
ATOM     32  C19 UNL     1     157.027 158.520 171.119  0.00  0.00    +0.000 A 
ATOM     33  N7  UNL     1     156.216 158.736 172.239  0.00  0.00    +0.000 N 
ATOM     34  H12 UNL     1     155.432 158.077 172.454  0.00  0.00    +0.000 HD
ATOM     35  H13 UNL     1     156.359 159.551 172.897  0.00  0.00    +0.000 HD
ENDBRANCH  27  28
ENDBRANCH  26  27
ENDBRANCH  25  26
ENDBRANCH  20  25
TORSDOF 4
ENDMDL
MODEL 6
REMARK VINA RESULT:      -6.3      9.057     11.699
REMARK  Name = ./3D_structures\o35_MMV1633966_3D.pdb
REMARK  4 active torsions:
REMARK  status: ('A' for Active; 'I' for Inactive)
REMARK    1  A    between atoms: C16_20  and  O1_21
REMARK    2  A    between atoms: O1_21  and  C17_22
REMARK    3  A    between atoms: C17_22  and  C18_23
REMARK    4  A    between atoms: C18_23  and  N3_24
REMARK                            x       y       z     vdW  Elec       q    Type
REMARK                         _______ _______ _______ _____ _____    ______ ____
ROOT
ATOM      1 CL1  UNL     1     162.624 162.324 169.116  0.00  0.00    +0.000 Cl
ATOM      2  C1  UNL     1     160.995 161.724 169.035  0.00  0.00    +0.000 A 
ATOM      3  C2  UNL     1     160.731 160.635 168.257  0.00  0.00    +0.000 A 
ATOM      4  C3  UNL     1     159.425 160.170 168.205  0.00  0.00    +0.000 A 
ATOM      5  C4  UNL     1     158.397 160.759 168.902  0.00  0.00    +0.000 A 
ATOM      6  N1  UNL     1     157.268 160.080 168.644  0.00  0.00    +0.000 N 
ATOM      7  C5  UNL     1     157.550 159.063 167.791  0.00  0.00    +0.000 A 
ATOM      8  C6  UNL     1     158.895 159.107 167.508  0.00  0.00    +0.000 A 
ATOM      9  C7  UNL     1     159.459 158.159 166.644  0.00  0.00    +0.000 A 
ATOM     10  C8  UNL     1     158.611 157.215 166.114  0.00  0.00    +0.000 A 
ATOM     11  C9  UNL     1     158.843 156.152 165.238  0.00  0.00    +0.000 A 
ATOM     12  C10 UNL     1     157.670 155.472 164.989  0.00  0.00    +0.000 A 
ATOM     13  C11 UNL     1     157.661 154.379 164.148  0.00  0.00    +0.000 A 
ATOM     14  C12 UNL     1     158.817 153.947 163.541  0.00  0.00    +0.000 A 
ATOM     15  C13 UNL     1     159.999 154.618 163.782  0.00  0.00    +0.000 A 
ATOM     16  C14 UNL     1     159.996 155.716 164.631  0.00  0.00    +0.000 A 
ATOM     17 CL2  UNL     1     161.493 154.103 163.032  0.00  0.00    +0.000 Cl
ATOM     18  N2  UNL     1     156.712 156.110 165.708  0.00  0.00    +0.000 N 
ATOM     19  C15 UNL     1     157.262 157.156 166.386  0.00  0.00    +0.000 A 
ATOM     20  C16 UNL     1     156.713 158.090 167.236  0.00  0.00    +0.000 A 
ATOM     21  C20 UNL     1     158.667 161.877 169.701  0.00  0.00    +0.000 A 
ATOM     22  C21 UNL     1     159.971 162.328 169.744  0.00  0.00    +0.000 A 
ATOM     23  H2  UNL     1     156.308 160.288 169.029  0.00  0.00    +0.000 HD
ATOM     24  H7  UNL     1     155.723 155.834 165.726  0.00  0.00    +0.000 HD
ENDROOT
BRANCH  20  25
ATOM     25  O1  UNL     1     155.366 158.088 167.552  0.00  0.00    +0.000 OA
BRANCH  25  26
ATOM     26  C17 UNL     1     154.899 157.230 168.562  0.00  0.00    +0.000 C 
BRANCH  26  27
ATOM     27  C18 UNL     1     154.319 158.008 169.727  0.00  0.00    +0.000 C 
BRANCH  27  28
ATOM     28  N3  UNL     1     155.387 158.442 170.602  0.00  0.00    +0.000 N 
ATOM     29  N4  UNL     1     156.512 157.784 170.791  0.00  0.00    +0.000 NA
ATOM     30  N5  UNL     1     157.289 158.424 171.640  0.00  0.00    +0.000 NA
ATOM     31  N6  UNL     1     156.628 159.515 171.991  0.00  0.00    +0.000 NA
ATOM     32  C19 UNL     1     155.442 159.550 171.360  0.00  0.00    +0.000 A 
ATOM     33  N7  UNL     1     154.470 160.551 171.480  0.00  0.00    +0.000 N 
ATOM     34  H12 UNL     1     153.495 160.302 171.770  0.00  0.00    +0.000 HD
ATOM     35  H13 UNL     1     154.674 161.570 171.288  0.00  0.00    +0.000 HD
ENDBRANCH  27  28
ENDBRANCH  26  27
ENDBRANCH  25  26
ENDBRANCH  20  25
TORSDOF 4
ENDMDL
MODEL 7
REMARK VINA RESULT:      -6.2      8.771     11.651
REMARK  Name = ./3D_structures\o35_MMV1633966_3D.pdb
REMARK  4 active torsions:
REMARK  status: ('A' for Active; 'I' for Inactive)
REMARK    1  A    between atoms: C16_20  and  O1_21
REMARK    2  A    between atoms: O1_21  and  C17_22
REMARK    3  A    between atoms: C17_22  and  C18_23
REMARK    4  A    between atoms: C18_23  and  N3_24
REMARK                            x       y       z     vdW  Elec       q    Type
REMARK                         _______ _______ _______ _____ _____    ______ ____
ROOT
ATOM      1 CL1  UNL     1     161.387 154.364 163.568  0.00  0.00    +0.000 Cl
ATOM      2  C1  UNL     1     159.892 154.987 164.199  0.00  0.00    +0.000 A 
ATOM      3  C2  UNL     1     159.924 156.083 165.011  0.00  0.00    +0.000 A 
ATOM      4  C3  UNL     1     158.721 156.566 165.504  0.00  0.00    +0.000 A 
ATOM      5  C4  UNL     1     157.509 155.988 165.209  0.00  0.00    +0.000 A 
ATOM      6  N1  UNL     1     156.546 156.684 165.834  0.00  0.00    +0.000 N 
ATOM      7  C5  UNL     1     157.115 157.700 166.528  0.00  0.00    +0.000 A 
ATOM      8  C6  UNL     1     158.475 157.640 166.332  0.00  0.00    +0.000 A 
ATOM      9  C7  UNL     1     159.313 158.583 166.942  0.00  0.00    +0.000 A 
ATOM     10  C8  UNL     1     158.710 159.540 167.722  0.00  0.00    +0.000 A 
ATOM     11  C9  UNL     1     159.241 160.604 168.455  0.00  0.00    +0.000 A 
ATOM     12  C10 UNL     1     158.234 161.302 169.087  0.00  0.00    +0.000 A 
ATOM     13  C11 UNL     1     158.527 162.398 169.870  0.00  0.00    +0.000 A 
ATOM     14  C12 UNL     1     159.826 162.816 170.038  0.00  0.00    +0.000 A 
ATOM     15  C13 UNL     1     160.845 162.128 169.411  0.00  0.00    +0.000 A 
ATOM     16  C14 UNL     1     160.538 161.027 168.625  0.00  0.00    +0.000 A 
ATOM     17 CL2  UNL     1     162.512 162.626 169.597  0.00  0.00    +0.000 Cl
ATOM     18  N2  UNL     1     157.079 160.674 168.747  0.00  0.00    +0.000 N 
ATOM     19  C15 UNL     1     157.350 159.618 167.930  0.00  0.00    +0.000 A 
ATOM     20  C16 UNL     1     156.532 158.688 167.328  0.00  0.00    +0.000 A 
ATOM     21  C20 UNL     1     157.475 154.863 164.376  0.00  0.00    +0.000 A 
ATOM     22  C21 UNL     1     158.679 154.394 163.891  0.00  0.00    +0.000 A 
ATOM     23  H2  UNL     1     155.510 156.487 165.804  0.00  0.00    +0.000 HD
ATOM     24  H7  UNL     1     156.148 160.963 169.067  0.00  0.00    +0.000 HD
ENDROOT
BRANCH  20  25
ATOM     25  O1  UNL     1     155.159 158.707 167.495  0.00  0.00    +0.000 OA
BRANCH  25  26
ATOM     26  C17 UNL     1     154.559 157.772 168.357  0.00  0.00    +0.000 C 
BRANCH  26  27
ATOM     27  C18 UNL     1     154.073 158.428 169.635  0.00  0.00    +0.000 C 
BRANCH  27  28
ATOM     28  N3  UNL     1     155.182 158.591 170.551  0.00  0.00    +0.000 N 
ATOM     29  N4  UNL     1     155.554 159.739 171.078  0.00  0.00    +0.000 NA
ATOM     30  N5  UNL     1     156.592 159.574 171.871  0.00  0.00    +0.000 NA
ATOM     31  N6  UNL     1     156.877 158.281 171.836  0.00  0.00    +0.000 NA
ATOM     32  C19 UNL     1     156.015 157.648 171.023  0.00  0.00    +0.000 A 
ATOM     33  N7  UNL     1     156.002 156.278 170.736  0.00  0.00    +0.000 N 
ATOM     34  H12 UNL     1     156.061 155.949 169.744  0.00  0.00    +0.000 HD
ATOM     35  H13 UNL     1     155.934 155.539 171.489  0.00  0.00    +0.000 HD
ENDBRANCH  27  28
ENDBRANCH  26  27
ENDBRANCH  25  26
ENDBRANCH  20  25
TORSDOF 4
ENDMDL
MODEL 8
REMARK VINA RESULT:      -6.1      8.861     11.884
REMARK  Name = ./3D_structures\o35_MMV1633966_3D.pdb
REMARK  4 active torsions:
REMARK  status: ('A' for Active; 'I' for Inactive)
REMARK    1  A    between atoms: C16_20  and  O1_21
REMARK    2  A    between atoms: O1_21  and  C17_22
REMARK    3  A    between atoms: C17_22  and  C18_23
REMARK    4  A    between atoms: C18_23  and  N3_24
REMARK                            x       y       z     vdW  Elec       q    Type
REMARK                         _______ _______ _______ _____ _____    ______ ____
ROOT
ATOM      1 CL1  UNL     1     164.698 163.246 169.309  0.00  0.00    +0.000 Cl
ATOM      2  C1  UNL     1     162.993 163.004 169.543  0.00  0.00    +0.000 A 
ATOM      3  C2  UNL     1     162.376 161.979 168.888  0.00  0.00    +0.000 A 
ATOM      4  C3  UNL     1     161.015 161.800 169.088  0.00  0.00    +0.000 A 
ATOM      5  C4  UNL     1     160.271 162.610 169.914  0.00  0.00    +0.000 A 
ATOM      6  N1  UNL     1     159.000 162.180 169.893  0.00  0.00    +0.000 N 
ATOM      7  C5  UNL     1     158.910 161.107 169.067  0.00  0.00    +0.000 A 
ATOM      8  C6  UNL     1     160.162 160.858 168.556  0.00  0.00    +0.000 A 
ATOM      9  C7  UNL     1     160.356 159.793 167.666  0.00  0.00    +0.000 A 
ATOM     10  C8  UNL     1     159.252 159.039 167.346  0.00  0.00    +0.000 A 
ATOM     11  C9  UNL     1     159.100 157.932 166.509  0.00  0.00    +0.000 A 
ATOM     12  C10 UNL     1     157.787 157.509 166.504  0.00  0.00    +0.000 A 
ATOM     13  C11 UNL     1     157.404 156.425 165.744  0.00  0.00    +0.000 A 
ATOM     14  C12 UNL     1     158.319 155.745 164.976  0.00  0.00    +0.000 A 
ATOM     15  C13 UNL     1     159.637 156.155 164.971  0.00  0.00    +0.000 A 
ATOM     16  C14 UNL     1     160.011 157.247 165.741  0.00  0.00    +0.000 A 
ATOM     17 CL2  UNL     1     160.834 155.318 164.009  0.00  0.00    +0.000 Cl
ATOM     18  N2  UNL     1     157.125 158.352 167.337  0.00  0.00    +0.000 N 
ATOM     19  C15 UNL     1     157.990 159.273 167.848  0.00  0.00    +0.000 A 
ATOM     20  C16 UNL     1     157.806 160.321 168.722  0.00  0.00    +0.000 A 
ATOM     21  C20 UNL     1     160.904 163.662 170.586  0.00  0.00    +0.000 A 
ATOM     22  C21 UNL     1     162.258 163.828 170.379  0.00  0.00    +0.000 A 
ATOM     23  H2  UNL     1     158.188 162.595 170.423  0.00  0.00    +0.000 HD
ATOM     24  H7  UNL     1     156.121 158.293 167.541  0.00  0.00    +0.000 HD
ENDROOT
BRANCH  20  25
ATOM     25  O1  UNL     1     156.566 160.612 169.263  0.00  0.00    +0.000 OA
BRANCH  25  26
ATOM     26  C17 UNL     1     156.264 160.174 170.563  0.00  0.00    +0.000 C 
BRANCH  26  27
ATOM     27  C18 UNL     1     154.868 159.586 170.641  0.00  0.00    +0.000 C 
BRANCH  27  28
ATOM     28  N3  UNL     1     154.688 158.618 169.580  0.00  0.00    +0.000 N 
ATOM     29  N4  UNL     1     154.141 158.883 168.412  0.00  0.00    +0.000 NA
ATOM     30  N5  UNL     1     154.114 157.806 167.655  0.00  0.00    +0.000 NA
ATOM     31  N6  UNL     1     154.663 156.839 168.374  0.00  0.00    +0.000 NA
ATOM     32  C19 UNL     1     155.029 157.318 169.575  0.00  0.00    +0.000 A 
ATOM     33  N7  UNL     1     155.641 156.593 170.604  0.00  0.00    +0.000 N 
ATOM     34  H12 UNL     1     155.203 156.558 171.553  0.00  0.00    +0.000 HD
ATOM     35  H13 UNL     1     156.547 156.064 170.467  0.00  0.00    +0.000 HD
ENDBRANCH  27  28
ENDBRANCH  26  27
ENDBRANCH  25  26
ENDBRANCH  20  25
TORSDOF 4
ENDMDL
MODEL 9
REMARK VINA RESULT:      -6.1      8.676     12.440
REMARK  Name = ./3D_structures\o35_MMV1633966_3D.pdb
REMARK  4 active torsions:
REMARK  status: ('A' for Active; 'I' for Inactive)
REMARK    1  A    between atoms: C16_20  and  O1_21
REMARK    2  A    between atoms: O1_21  and  C17_22
REMARK    3  A    between atoms: C17_22  and  C18_23
REMARK    4  A    between atoms: C18_23  and  N3_24
REMARK                            x       y       z     vdW  Elec       q    Type
REMARK                         _______ _______ _______ _____ _____    ______ ____
ROOT
ATOM      1 CL1  UNL     1     161.313 152.748 161.523  0.00  0.00    +0.000 Cl
ATOM      2  C1  UNL     1     159.966 153.319 162.461  0.00  0.00    +0.000 A 
ATOM      3  C2  UNL     1     160.142 154.396 163.280  0.00  0.00    +0.000 A 
ATOM      4  C3  UNL     1     159.055 154.837 164.021  0.00  0.00    +0.000 A 
ATOM      5  C4  UNL     1     157.820 154.237 163.962  0.00  0.00    +0.000 A 
ATOM      6  N1  UNL     1     156.991 154.894 164.789  0.00  0.00    +0.000 N 
ATOM      7  C5  UNL     1     157.671 155.908 165.381  0.00  0.00    +0.000 A 
ATOM      8  C6  UNL     1     158.963 155.886 164.911  0.00  0.00    +0.000 A 
ATOM      9  C7  UNL     1     159.889 156.835 165.363  0.00  0.00    +0.000 A 
ATOM     10  C8  UNL     1     159.440 157.759 166.276  0.00  0.00    +0.000 A 
ATOM     11  C9  UNL     1     160.088 158.818 166.915  0.00  0.00    +0.000 A 
ATOM     12  C10 UNL     1     159.217 159.477 167.757  0.00  0.00    +0.000 A 
ATOM     13  C11 UNL     1     159.642 160.561 168.494  0.00  0.00    +0.000 A 
ATOM     14  C12 UNL     1     160.940 161.007 168.406  0.00  0.00    +0.000 A 
ATOM     15  C13 UNL     1     161.823 160.359 167.566  0.00  0.00    +0.000 A 
ATOM     16  C14 UNL     1     161.383 159.269 166.829  0.00  0.00    +0.000 A 
ATOM     17 CL2  UNL     1     163.483 160.894 167.423  0.00  0.00    +0.000 Cl
ATOM     18  N2  UNL     1     158.030 158.829 167.642  0.00  0.00    +0.000 N 
ATOM     19  C15 UNL     1     158.149 157.798 166.758  0.00  0.00    +0.000 A 
ATOM     20  C16 UNL     1     157.243 156.862 166.310  0.00  0.00    +0.000 A 
ATOM     21  C20 UNL     1     157.639 153.131 163.122  0.00  0.00    +0.000 A 
ATOM     22  C21 UNL     1     158.728 152.703 162.391  0.00  0.00    +0.000 A 
ATOM     23  H2  UNL     1     155.975 154.673 164.965  0.00  0.00    +0.000 HD
ATOM     24  H7  UNL     1     157.178 159.087 168.152  0.00  0.00    +0.000 HD
ENDROOT
BRANCH  20  25
ATOM     25  O1  UNL     1     155.933 156.844 166.753  0.00  0.00    +0.000 OA
BRANCH  25  26
ATOM     26  C17 UNL     1     155.043 157.835 166.306  0.00  0.00    +0.000 C 
BRANCH  26  27
ATOM     27  C18 UNL     1     154.140 158.315 167.425  0.00  0.00    +0.000 C 
BRANCH  27  28
ATOM     28  N3  UNL     1     154.945 158.825 168.515  0.00  0.00    +0.000 N 
ATOM     29  N4  UNL     1     155.367 160.068 168.614  0.00  0.00    +0.000 NA
ATOM     30  N5  UNL     1     156.076 160.234 169.711  0.00  0.00    +0.000 NA
ATOM     31  N6  UNL     1     156.096 159.056 170.316  0.00  0.00    +0.000 NA
ATOM     32  C19 UNL     1     155.400 158.163 169.592  0.00  0.00    +0.000 A 
ATOM     33  N7  UNL     1     155.199 156.815 169.913  0.00  0.00    +0.000 N 
ATOM     34  H12 UNL     1     155.477 156.068 169.235  0.00  0.00    +0.000 HD
ATOM     35  H13 UNL     1     154.769 156.505 170.828  0.00  0.00    +0.000 HD
ENDBRANCH  27  28
ENDBRANCH  26  27
ENDBRANCH  25  26
ENDBRANCH  20  25
TORSDOF 4
ENDMDL
