MODEL 1
REMARK VINA RESULT:      -5.8      0.000      0.000
REMARK  Name = ./3D_structures\o36_MMV1505642_3D.pdb
REMARK  4 active torsions:
REMARK  status: ('A' for Active; 'I' for Inactive)
REMARK    1  A    between atoms: C4_5  and  S1_9
REMARK    2  A    between atoms: S1_9  and  N1_12
REMARK    3  A    between atoms: N1_12  and  C7_13
REMARK    4  A    between atoms: C10_16  and  N2_19
REMARK                            x       y       z     vdW  Elec       q    Type
REMARK                         _______ _______ _______ _____ _____    ______ ____
ROOT
ATOM      1  N1  UNL     1     158.154 157.614 166.927  0.00  0.00    +0.000 N 
ATOM      2  H4  UNL     1     159.155 157.349 166.809  0.00  0.00    +0.000 HD
ENDROOT
BRANCH   1   3
ATOM      3  C7  UNL     1     157.748 158.169 168.160  0.00  0.00    +0.000 A 
ATOM      4  C8  UNL     1     158.070 159.481 168.474  0.00  0.00    +0.000 A 
ATOM      5  C9  UNL     1     157.708 160.066 169.642  0.00  0.00    +0.000 A 
ATOM      6  C10 UNL     1     156.982 159.369 170.601  0.00  0.00    +0.000 A 
ATOM      7  C11 UNL     1     156.667 158.063 170.278  0.00  0.00    +0.000 A 
ATOM      8  C12 UNL     1     157.034 157.466 169.092  0.00  0.00    +0.000 A 
BRANCH   6   9
ATOM      9  N2  UNL     1     156.591 159.948 171.824  0.00  0.00    +0.000 N 
ATOM     10  C13 UNL     1     155.765 159.399 172.714  0.00  0.00    +0.000 A 
ATOM     11  C14 UNL     1     155.604 160.253 173.807  0.00  0.00    +0.000 A 
ATOM     12  C15 UNL     1     156.379 161.348 173.524  0.00  0.00    +0.000 A 
ATOM     13  C16 UNL     1     156.982 161.135 172.288  0.00  0.00    +0.000 A 
ENDBRANCH   6   9
ENDBRANCH   1   3
BRANCH   1  14
ATOM     14  S1  UNL     1     157.104 157.347 165.606  0.00  0.00    +0.000 S 
ATOM     15  O1  UNL     1     157.809 157.313 164.293  0.00  0.00    +0.000 OA
ATOM     16  O2  UNL     1     156.321 156.069 165.758  0.00  0.00    +0.000 OA
BRANCH  14  21
ATOM     17 CL1  UNL     1     152.794 161.875 165.559  0.00  0.00    +0.000 Cl
ATOM     18  C1  UNL     1     154.035 160.645 165.545  0.00  0.00    +0.000 A 
ATOM     19  C2  UNL     1     153.749 159.412 166.106  0.00  0.00    +0.000 A 
ATOM     20  C3  UNL     1     154.713 158.453 166.097  0.00  0.00    +0.000 A 
ATOM     21  C4  UNL     1     155.957 158.663 165.552  0.00  0.00    +0.000 A 
ATOM     22  C5  UNL     1     156.232 159.893 164.997  0.00  0.00    +0.000 A 
ATOM     23  C6  UNL     1     155.273 160.882 164.994  0.00  0.00    +0.000 A 
ATOM     24 CL2  UNL     1     155.624 162.435 164.291  0.00  0.00    +0.000 Cl
ENDBRANCH  14  21
ENDBRANCH   1  14
TORSDOF 4
ENDMDL
MODEL 2
REMARK VINA RESULT:      -5.6      6.697      8.545
REMARK  Name = ./3D_structures\o36_MMV1505642_3D.pdb
REMARK  4 active torsions:
REMARK  status: ('A' for Active; 'I' for Inactive)
REMARK    1  A    between atoms: C4_5  and  S1_9
REMARK    2  A    between atoms: S1_9  and  N1_12
REMARK    3  A    between atoms: N1_12  and  C7_13
REMARK    4  A    between atoms: C10_16  and  N2_19
REMARK                            x       y       z     vdW  Elec       q    Type
REMARK                         _______ _______ _______ _____ _____    ______ ____
ROOT
ATOM      1  N1  UNL     1     150.322 162.722 167.104  0.00  0.00    +0.000 N 
ATOM      2  H4  UNL     1     150.561 163.681 166.773  0.00  0.00    +0.000 HD
ENDROOT
BRANCH   1   3
ATOM      3  C7  UNL     1     151.327 161.731 167.068  0.00  0.00    +0.000 A 
ATOM      4  C8  UNL     1     151.664 161.036 168.219  0.00  0.00    +0.000 A 
ATOM      5  C9  UNL     1     152.620 160.076 168.244  0.00  0.00    +0.000 A 
ATOM      6  C10 UNL     1     153.324 159.732 167.096  0.00  0.00    +0.000 A 
ATOM      7  C11 UNL     1     152.980 160.430 165.954  0.00  0.00    +0.000 A 
ATOM      8  C12 UNL     1     152.010 161.407 165.926  0.00  0.00    +0.000 A 
BRANCH   6   9
ATOM      9  N2  UNL     1     154.323 158.739 167.088  0.00  0.00    +0.000 N 
ATOM     10  C13 UNL     1     154.807 158.115 168.162  0.00  0.00    +0.000 A 
ATOM     11  C14 UNL     1     155.783 157.194 167.779  0.00  0.00    +0.000 A 
ATOM     12  C15 UNL     1     155.862 157.299 166.414  0.00  0.00    +0.000 A 
ATOM     13  C16 UNL     1     154.946 158.264 166.009  0.00  0.00    +0.000 A 
ENDBRANCH   6   9
ENDBRANCH   1   3
BRANCH   1  14
ATOM     14  S1  UNL     1     148.729 162.450 167.659  0.00  0.00    +0.000 S 
ATOM     15  O1  UNL     1     148.135 161.185 167.139  0.00  0.00    +0.000 OA
ATOM     16  O2  UNL     1     148.652 162.427 169.163  0.00  0.00    +0.000 OA
BRANCH  14  21
ATOM     17 CL1  UNL     1     145.408 167.342 165.632  0.00  0.00    +0.000 Cl
ATOM     18  C1  UNL     1     146.287 165.945 166.203  0.00  0.00    +0.000 A 
ATOM     19  C2  UNL     1     147.663 166.035 166.328  0.00  0.00    +0.000 A 
ATOM     20  C3  UNL     1     148.350 164.949 166.772  0.00  0.00    +0.000 A 
ATOM     21  C4  UNL     1     147.730 163.768 167.101  0.00  0.00    +0.000 A 
ATOM     22  C5  UNL     1     146.360 163.688 166.973  0.00  0.00    +0.000 A 
ATOM     23  C6  UNL     1     145.641 164.774 166.525  0.00  0.00    +0.000 A 
ATOM     24 CL2  UNL     1     143.911 164.668 166.366  0.00  0.00    +0.000 Cl
ENDBRANCH  14  21
ENDBRANCH   1  14
TORSDOF 4
ENDMDL
MODEL 3
REMARK VINA RESULT:      -5.5      5.416      6.386
REMARK  Name = ./3D_structures\o36_MMV1505642_3D.pdb
REMARK  4 active torsions:
REMARK  status: ('A' for Active; 'I' for Inactive)
REMARK    1  A    between atoms: C4_5  and  S1_9
REMARK    2  A    between atoms: S1_9  and  N1_12
REMARK    3  A    between atoms: N1_12  and  C7_13
REMARK    4  A    between atoms: C10_16  and  N2_19
REMARK                            x       y       z     vdW  Elec       q    Type
REMARK                         _______ _______ _______ _____ _____    ______ ____
ROOT
ATOM      1  N1  UNL     1     158.182 156.513 163.445  0.00  0.00    +0.000 N 
ATOM      2  H4  UNL     1     157.660 157.065 162.732  0.00  0.00    +0.000 HD
ENDROOT
BRANCH   1   3
ATOM      3  C7  UNL     1     157.980 156.819 164.809  0.00  0.00    +0.000 A 
ATOM      4  C8  UNL     1     158.832 157.699 165.460  0.00  0.00    +0.000 A 
ATOM      5  C9  UNL     1     158.686 158.028 166.767  0.00  0.00    +0.000 A 
ATOM      6  C10 UNL     1     157.659 157.493 167.534  0.00  0.00    +0.000 A 
ATOM      7  C11 UNL     1     156.816 156.617 166.875  0.00  0.00    +0.000 A 
ATOM      8  C12 UNL     1     156.962 156.280 165.548  0.00  0.00    +0.000 A 
BRANCH   6   9
ATOM      9  N2  UNL     1     157.481 157.815 168.894  0.00  0.00    +0.000 N 
ATOM     10  C13 UNL     1     158.411 158.329 169.698  0.00  0.00    +0.000 A 
ATOM     11  C14 UNL     1     157.883 158.519 170.977  0.00  0.00    +0.000 A 
ATOM     12  C15 UNL     1     156.583 158.091 170.897  0.00  0.00    +0.000 A 
ATOM     13  C16 UNL     1     156.357 157.657 169.594  0.00  0.00    +0.000 A 
ENDBRANCH   6   9
ENDBRANCH   1   3
BRANCH   1  14
ATOM     14  S1  UNL     1     159.234 155.289 162.884  0.00  0.00    +0.000 S 
ATOM     15  O1  UNL     1     159.442 155.325 161.409  0.00  0.00    +0.000 OA
ATOM     16  O2  UNL     1     160.581 155.352 163.555  0.00  0.00    +0.000 OA
BRANCH  14  21
ATOM     17 CL1  UNL     1     156.898 149.727 164.523  0.00  0.00    +0.000 Cl
ATOM     18  C1  UNL     1     157.511 151.285 164.023  0.00  0.00    +0.000 A 
ATOM     19  C2  UNL     1     158.589 151.821 164.707  0.00  0.00    +0.000 A 
ATOM     20  C3  UNL     1     159.068 153.033 164.321  0.00  0.00    +0.000 A 
ATOM     21  C4  UNL     1     158.523 153.744 163.278  0.00  0.00    +0.000 A 
ATOM     22  C5  UNL     1     157.451 153.202 162.604  0.00  0.00    +0.000 A 
ATOM     23  C6  UNL     1     156.946 151.975 162.976  0.00  0.00    +0.000 A 
ATOM     24 CL2  UNL     1     155.592 151.294 162.121  0.00  0.00    +0.000 Cl
ENDBRANCH  14  21
ENDBRANCH   1  14
TORSDOF 4
ENDMDL
MODEL 4
REMARK VINA RESULT:      -5.4      9.907     12.692
REMARK  Name = ./3D_structures\o36_MMV1505642_3D.pdb
REMARK  4 active torsions:
REMARK  status: ('A' for Active; 'I' for Inactive)
REMARK    1  A    between atoms: C4_5  and  S1_9
REMARK    2  A    between atoms: S1_9  and  N1_12
REMARK    3  A    between atoms: N1_12  and  C7_13
REMARK    4  A    between atoms: C10_16  and  N2_19
REMARK                            x       y       z     vdW  Elec       q    Type
REMARK                         _______ _______ _______ _____ _____    ______ ____
ROOT
ATOM      1  N1  UNL     1     146.010 165.135 168.931  0.00  0.00    +0.000 N 
ATOM      2  H4  UNL     1     145.489 165.834 169.502  0.00  0.00    +0.000 HD
ENDROOT
BRANCH   1   3
ATOM      3  C7  UNL     1     145.436 164.701 167.716  0.00  0.00    +0.000 A 
ATOM      4  C8  UNL     1     145.026 163.385 167.568  0.00  0.00    +0.000 A 
ATOM      5  C9  UNL     1     144.469 162.913 166.426  0.00  0.00    +0.000 A 
ATOM      6  C10 UNL     1     144.278 163.739 165.325  0.00  0.00    +0.000 A 
ATOM      7  C11 UNL     1     144.690 165.049 165.483  0.00  0.00    +0.000 A 
ATOM      8  C12 UNL     1     145.256 165.530 166.642  0.00  0.00    +0.000 A 
BRANCH   6   9
ATOM      9  N2  UNL     1     143.703 163.280 164.123  0.00  0.00    +0.000 N 
ATOM     10  C13 UNL     1     144.302 162.500 163.224  0.00  0.00    +0.000 A 
ATOM     11  C14 UNL     1     143.434 162.245 162.161  0.00  0.00    +0.000 A 
ATOM     12  C15 UNL     1     142.280 162.916 162.469  0.00  0.00    +0.000 A 
ATOM     13  C16 UNL     1     142.471 163.551 163.692  0.00  0.00    +0.000 A 
ENDBRANCH   6   9
ENDBRANCH   1   3
BRANCH   1  14
ATOM     14  S1  UNL     1     147.512 164.585 169.530  0.00  0.00    +0.000 S 
ATOM     15  O1  UNL     1     148.072 165.458 170.601  0.00  0.00    +0.000 OA
ATOM     16  O2  UNL     1     147.427 163.178 170.061  0.00  0.00    +0.000 OA
BRANCH  14  21
ATOM     17 CL1  UNL     1     151.518 164.860 164.739  0.00  0.00    +0.000 Cl
ATOM     18  C1  UNL     1     150.414 164.728 166.086  0.00  0.00    +0.000 A 
ATOM     19  C2  UNL     1     149.659 165.835 166.432  0.00  0.00    +0.000 A 
ATOM     20  C3  UNL     1     148.799 165.736 167.481  0.00  0.00    +0.000 A 
ATOM     21  C4  UNL     1     148.652 164.579 168.207  0.00  0.00    +0.000 A 
ATOM     22  C5  UNL     1     149.408 163.482 167.855  0.00  0.00    +0.000 A 
ATOM     23  C6  UNL     1     150.287 163.557 166.798  0.00  0.00    +0.000 A 
ATOM     24 CL2  UNL     1     151.241 162.169 166.356  0.00  0.00    +0.000 Cl
ENDBRANCH  14  21
ENDBRANCH   1  14
TORSDOF 4
ENDMDL
MODEL 5
REMARK VINA RESULT:      -5.4      1.020      1.981
REMARK  Name = ./3D_structures\o36_MMV1505642_3D.pdb
REMARK  4 active torsions:
REMARK  status: ('A' for Active; 'I' for Inactive)
REMARK    1  A    between atoms: C4_5  and  S1_9
REMARK    2  A    between atoms: S1_9  and  N1_12
REMARK    3  A    between atoms: N1_12  and  C7_13
REMARK    4  A    between atoms: C10_16  and  N2_19
REMARK                            x       y       z     vdW  Elec       q    Type
REMARK                         _______ _______ _______ _____ _____    ______ ____
ROOT
ATOM      1  N1  UNL     1     157.320 156.501 167.523  0.00  0.00    +0.000 N 
ATOM      2  H4  UNL     1     157.410 155.475 167.685  0.00  0.00    +0.000 HD
ENDROOT
BRANCH   1   3
ATOM      3  C7  UNL     1     157.130 157.342 168.641  0.00  0.00    +0.000 A 
ATOM      4  C8  UNL     1     155.905 157.373 169.291  0.00  0.00    +0.000 A 
ATOM      5  C9  UNL     1     155.666 158.160 170.368  0.00  0.00    +0.000 A 
ATOM      6  C10 UNL     1     156.653 158.990 170.887  0.00  0.00    +0.000 A 
ATOM      7  C11 UNL     1     157.870 158.951 170.231  0.00  0.00    +0.000 A 
ATOM      8  C12 UNL     1     158.115 158.153 169.136  0.00  0.00    +0.000 A 
BRANCH   6   9
ATOM      9  N2  UNL     1     156.437 159.820 172.004  0.00  0.00    +0.000 N 
ATOM     10  C13 UNL     1     157.017 161.000 172.219  0.00  0.00    +0.000 A 
ATOM     11  C14 UNL     1     156.566 161.540 173.425  0.00  0.00    +0.000 A 
ATOM     12  C15 UNL     1     155.683 160.618 173.925  0.00  0.00    +0.000 A 
ATOM     13  C16 UNL     1     155.620 159.559 173.025  0.00  0.00    +0.000 A 
ENDBRANCH   6   9
ENDBRANCH   1   3
BRANCH   1  14
ATOM     14  S1  UNL     1     157.411 157.059 165.911  0.00  0.00    +0.000 S 
ATOM     15  O1  UNL     1     158.811 157.238 165.431  0.00  0.00    +0.000 OA
ATOM     16  O2  UNL     1     156.695 156.141 164.955  0.00  0.00    +0.000 OA
BRANCH  14  21
ATOM     17 CL1  UNL     1     154.877 162.767 165.634  0.00  0.00    +0.000 Cl
ATOM     18  C1  UNL     1     155.532 161.149 165.710  0.00  0.00    +0.000 A 
ATOM     19  C2  UNL     1     156.907 160.995 165.765  0.00  0.00    +0.000 A 
ATOM     20  C3  UNL     1     157.420 159.737 165.824  0.00  0.00    +0.000 A 
ATOM     21  C4  UNL     1     156.625 158.616 165.832  0.00  0.00    +0.000 A 
ATOM     22  C5  UNL     1     155.258 158.780 165.777  0.00  0.00    +0.000 A 
ATOM     23  C6  UNL     1     154.714 160.043 165.716  0.00  0.00    +0.000 A 
ATOM     24 CL2  UNL     1     152.986 160.246 165.648  0.00  0.00    +0.000 Cl
ENDBRANCH  14  21
ENDBRANCH   1  14
TORSDOF 4
ENDMDL
MODEL 6
REMARK VINA RESULT:      -5.4      3.996      6.361
REMARK  Name = ./3D_structures\o36_MMV1505642_3D.pdb
REMARK  4 active torsions:
REMARK  status: ('A' for Active; 'I' for Inactive)
REMARK    1  A    between atoms: C4_5  and  S1_9
REMARK    2  A    between atoms: S1_9  and  N1_12
REMARK    3  A    between atoms: N1_12  and  C7_13
REMARK    4  A    between atoms: C10_16  and  N2_19
REMARK                            x       y       z     vdW  Elec       q    Type
REMARK                         _______ _______ _______ _____ _____    ______ ____
ROOT
ATOM      1  N1  UNL     1     156.541 158.406 172.126  0.00  0.00    +0.000 N 
ATOM      2  H4  UNL     1     156.723 157.700 172.871  0.00  0.00    +0.000 HD
ENDROOT
BRANCH   1   3
ATOM      3  C7  UNL     1     156.841 158.062 170.790  0.00  0.00    +0.000 A 
ATOM      4  C8  UNL     1     155.968 157.269 170.061  0.00  0.00    +0.000 A 
ATOM      5  C9  UNL     1     156.205 156.908 168.776  0.00  0.00    +0.000 A 
ATOM      6  C10 UNL     1     157.354 157.320 168.112  0.00  0.00    +0.000 A 
ATOM      7  C11 UNL     1     158.216 158.111 168.848  0.00  0.00    +0.000 A 
ATOM      8  C12 UNL     1     157.979 158.479 170.153  0.00  0.00    +0.000 A 
BRANCH   6   9
ATOM      9  N2  UNL     1     157.628 156.962 166.778  0.00  0.00    +0.000 N 
ATOM     10  C13 UNL     1     156.759 156.423 165.924  0.00  0.00    +0.000 A 
ATOM     11  C14 UNL     1     157.377 156.200 164.691  0.00  0.00    +0.000 A 
ATOM     12  C15 UNL     1     158.667 156.634 164.852  0.00  0.00    +0.000 A 
ATOM     13  C16 UNL     1     158.799 157.102 166.155  0.00  0.00    +0.000 A 
ENDBRANCH   6   9
ENDBRANCH   1   3
BRANCH   1  14
ATOM     14  S1  UNL     1     155.895 159.914 172.605  0.00  0.00    +0.000 S 
ATOM     15  O1  UNL     1     155.204 159.863 173.925  0.00  0.00    +0.000 OA
ATOM     16  O2  UNL     1     156.951 160.987 172.662  0.00  0.00    +0.000 OA
BRANCH  14  21
ATOM     17 CL1  UNL     1     151.897 161.815 168.192  0.00  0.00    +0.000 Cl
ATOM     18  C1  UNL     1     152.971 161.254 169.450  0.00  0.00    +0.000 A 
ATOM     19  C2  UNL     1     154.295 161.658 169.417  0.00  0.00    +0.000 A 
ATOM     20  C3  UNL     1     155.134 161.223 170.395  0.00  0.00    +0.000 A 
ATOM     21  C4  UNL     1     154.716 160.399 171.412  0.00  0.00    +0.000 A 
ATOM     22  C5  UNL     1     153.397 160.003 171.436  0.00  0.00    +0.000 A 
ATOM     23  C6  UNL     1     152.527 160.429 170.457  0.00  0.00    +0.000 A 
ATOM     24 CL2  UNL     1     150.861 159.925 170.492  0.00  0.00    +0.000 Cl
ENDBRANCH  14  21
ENDBRANCH   1  14
TORSDOF 4
ENDMDL
MODEL 7
REMARK VINA RESULT:      -5.3      3.929      6.518
REMARK  Name = ./3D_structures\o36_MMV1505642_3D.pdb
REMARK  4 active torsions:
REMARK  status: ('A' for Active; 'I' for Inactive)
REMARK    1  A    between atoms: C4_5  and  S1_9
REMARK    2  A    between atoms: S1_9  and  N1_12
REMARK    3  A    between atoms: N1_12  and  C7_13
REMARK    4  A    between atoms: C10_16  and  N2_19
REMARK                            x       y       z     vdW  Elec       q    Type
REMARK                         _______ _______ _______ _____ _____    ______ ____
ROOT
ATOM      1  N1  UNL     1     154.363 157.746 168.529  0.00  0.00    +0.000 N 
ATOM      2  H4  UNL     1     153.880 156.834 168.383  0.00  0.00    +0.000 HD
ENDROOT
BRANCH   1   3
ATOM      3  C7  UNL     1     153.886 158.876 167.829  0.00  0.00    +0.000 A 
ATOM      4  C8  UNL     1     154.207 159.056 166.492  0.00  0.00    +0.000 A 
ATOM      5  C9  UNL     1     153.778 160.120 165.771  0.00  0.00    +0.000 A 
ATOM      6  C10 UNL     1     152.980 161.103 166.344  0.00  0.00    +0.000 A 
ATOM      7  C11 UNL     1     152.666 160.914 167.677  0.00  0.00    +0.000 A 
ATOM      8  C12 UNL     1     153.101 159.834 168.412  0.00  0.00    +0.000 A 
BRANCH   6   9
ATOM      9  N2  UNL     1     152.518 162.221 165.622  0.00  0.00    +0.000 N 
ATOM     10  C13 UNL     1     151.804 163.228 166.124  0.00  0.00    +0.000 A 
ATOM     11  C14 UNL     1     151.524 164.159 165.122  0.00  0.00    +0.000 A 
ATOM     12  C15 UNL     1     152.108 163.656 163.989  0.00  0.00    +0.000 A 
ATOM     13  C16 UNL     1     152.719 162.452 164.325  0.00  0.00    +0.000 A 
ENDBRANCH   6   9
ENDBRANCH   1   3
BRANCH   1  14
ATOM     14  S1  UNL     1     155.688 157.777 169.607  0.00  0.00    +0.000 S 
ATOM     15  O1  UNL     1     155.691 158.972 170.499  0.00  0.00    +0.000 OA
ATOM     16  O2  UNL     1     155.744 156.542 170.467  0.00  0.00    +0.000 OA
BRANCH  14  21
ATOM     17 CL1  UNL     1     161.072 158.105 166.447  0.00  0.00    +0.000 Cl
ATOM     18  C1  UNL     1     159.544 157.984 167.286  0.00  0.00    +0.000 A 
ATOM     19  C2  UNL     1     159.434 158.554 168.543  0.00  0.00    +0.000 A 
ATOM     20  C3  UNL     1     158.246 158.461 169.199  0.00  0.00    +0.000 A 
ATOM     21  C4  UNL     1     157.154 157.825 168.660  0.00  0.00    +0.000 A 
ATOM     22  C5  UNL     1     157.274 157.261 167.408  0.00  0.00    +0.000 A 
ATOM     23  C6  UNL     1     158.466 157.340 166.724  0.00  0.00    +0.000 A 
ATOM     24 CL2  UNL     1     158.613 156.627 165.143  0.00  0.00    +0.000 Cl
ENDBRANCH  14  21
ENDBRANCH   1  14
TORSDOF 4
ENDMDL
MODEL 8
REMARK VINA RESULT:      -5.3      3.443      6.164
REMARK  Name = ./3D_structures\o36_MMV1505642_3D.pdb
REMARK  4 active torsions:
REMARK  status: ('A' for Active; 'I' for Inactive)
REMARK    1  A    between atoms: C4_5  and  S1_9
REMARK    2  A    between atoms: S1_9  and  N1_12
REMARK    3  A    between atoms: N1_12  and  C7_13
REMARK    4  A    between atoms: C10_16  and  N2_19
REMARK                            x       y       z     vdW  Elec       q    Type
REMARK                         _______ _______ _______ _____ _____    ______ ____
ROOT
ATOM      1  N1  UNL     1     156.623 158.966 165.183  0.00  0.00    +0.000 N 
ATOM      2  H4  UNL     1     157.463 159.126 164.587  0.00  0.00    +0.000 HD
ENDROOT
BRANCH   1   3
ATOM      3  C7  UNL     1     155.626 159.965 165.218  0.00  0.00    +0.000 A 
ATOM      4  C8  UNL     1     155.904 161.244 164.761  0.00  0.00    +0.000 A 
ATOM      5  C9  UNL     1     154.987 162.242 164.770  0.00  0.00    +0.000 A 
ATOM      6  C10 UNL     1     153.698 162.031 165.246  0.00  0.00    +0.000 A 
ATOM      7  C11 UNL     1     153.432 160.752 165.699  0.00  0.00    +0.000 A 
ATOM      8  C12 UNL     1     154.362 159.737 165.691  0.00  0.00    +0.000 A 
BRANCH   6   9
ATOM      9  N2  UNL     1     152.722 163.046 165.270  0.00  0.00    +0.000 N 
ATOM     10  C13 UNL     1     151.852 163.264 166.255  0.00  0.00    +0.000 A 
ATOM     11  C14 UNL     1     151.037 164.353 165.939  0.00  0.00    +0.000 A 
ATOM     12  C15 UNL     1     151.465 164.778 164.708  0.00  0.00    +0.000 A 
ATOM     13  C16 UNL     1     152.512 163.951 164.313  0.00  0.00    +0.000 A 
ENDBRANCH   6   9
ENDBRANCH   1   3
BRANCH   1  14
ATOM     14  S1  UNL     1     156.541 157.501 166.059  0.00  0.00    +0.000 S 
ATOM     15  O1  UNL     1     155.302 156.721 165.783  0.00  0.00    +0.000 OA
ATOM     16  O2  UNL     1     157.730 156.616 165.790  0.00  0.00    +0.000 OA
BRANCH  14  21
ATOM     17 CL1  UNL     1     156.413 158.628 172.207  0.00  0.00    +0.000 Cl
ATOM     18  C1  UNL     1     156.479 158.362 170.481  0.00  0.00    +0.000 A 
ATOM     19  C2  UNL     1     155.871 157.231 169.963  0.00  0.00    +0.000 A 
ATOM     20  C3  UNL     1     155.921 157.021 168.621  0.00  0.00    +0.000 A 
ATOM     21  C4  UNL     1     156.550 157.889 167.762  0.00  0.00    +0.000 A 
ATOM     22  C5  UNL     1     157.152 159.011 168.287  0.00  0.00    +0.000 A 
ATOM     23  C6  UNL     1     157.116 159.246 169.643  0.00  0.00    +0.000 A 
ATOM     24 CL2  UNL     1     157.878 160.667 170.302  0.00  0.00    +0.000 Cl
ENDBRANCH  14  21
ENDBRANCH   1  14
TORSDOF 4
ENDMDL
MODEL 9
REMARK VINA RESULT:      -5.3      3.892      7.351
REMARK  Name = ./3D_structures\o36_MMV1505642_3D.pdb
REMARK  4 active torsions:
REMARK  status: ('A' for Active; 'I' for Inactive)
REMARK    1  A    between atoms: C4_5  and  S1_9
REMARK    2  A    between atoms: S1_9  and  N1_12
REMARK    3  A    between atoms: N1_12  and  C7_13
REMARK    4  A    between atoms: C10_16  and  N2_19
REMARK                            x       y       z     vdW  Elec       q    Type
REMARK                         _______ _______ _______ _____ _____    ______ ____
ROOT
ATOM      1  N1  UNL     1     156.596 158.801 168.859  0.00  0.00    +0.000 N 
ATOM      2  H4  UNL     1     156.416 159.819 168.727  0.00  0.00    +0.000 HD
ENDROOT
BRANCH   1   3
ATOM      3  C7  UNL     1     156.886 158.018 167.720  0.00  0.00    +0.000 A 
ATOM      4  C8  UNL     1     155.869 157.638 166.857  0.00  0.00    +0.000 A 
ATOM      5  C9  UNL     1     156.088 156.887 165.751  0.00  0.00    +0.000 A 
ATOM      6  C10 UNL     1     157.365 156.452 165.418  0.00  0.00    +0.000 A 
ATOM      7  C11 UNL     1     158.371 156.836 166.284  0.00  0.00    +0.000 A 
ATOM      8  C12 UNL     1     158.151 157.599 167.410  0.00  0.00    +0.000 A 
BRANCH   6   9
ATOM      9  N2  UNL     1     157.626 155.670 164.275  0.00  0.00    +0.000 N 
ATOM     10  C13 UNL     1     157.721 154.342 164.248  0.00  0.00    +0.000 A 
ATOM     11  C14 UNL     1     157.987 153.909 162.948  0.00  0.00    +0.000 A 
ATOM     12  C15 UNL     1     158.048 155.051 162.193  0.00  0.00    +0.000 A 
ATOM     13  C16 UNL     1     157.821 156.132 163.040  0.00  0.00    +0.000 A 
ENDBRANCH   6   9
ENDBRANCH   1   3
BRANCH   1  14
ATOM     14  S1  UNL     1     156.520 158.184 170.451  0.00  0.00    +0.000 S 
ATOM     15  O1  UNL     1     156.048 156.771 170.510  0.00  0.00    +0.000 OA
ATOM     16  O2  UNL     1     157.850 158.271 171.153  0.00  0.00    +0.000 OA
BRANCH  14  21
ATOM     17 CL1  UNL     1     152.661 161.675 173.915  0.00  0.00    +0.000 Cl
ATOM     18  C1  UNL     1     153.700 160.699 172.905  0.00  0.00    +0.000 A 
ATOM     19  C2  UNL     1     154.941 160.329 173.395  0.00  0.00    +0.000 A 
ATOM     20  C3  UNL     1     155.751 159.570 172.611  0.00  0.00    +0.000 A 
ATOM     21  C4  UNL     1     155.385 159.156 171.353  0.00  0.00    +0.000 A 
ATOM     22  C5  UNL     1     154.148 159.530 170.874  0.00  0.00    +0.000 A 
ATOM     23  C6  UNL     1     153.309 160.300 171.648  0.00  0.00    +0.000 A 
ATOM     24 CL2  UNL     1     151.747 160.769 171.038  0.00  0.00    +0.000 Cl
ENDBRANCH  14  21
ENDBRANCH   1  14
TORSDOF 4
ENDMDL
