MODEL 1
REMARK VINA RESULT:      -6.1      0.000      0.000
REMARK  Name = ./3D_structures\o37_MMV1593542_3D.pdb
REMARK  8 active torsions:
REMARK  status: ('A' for Active; 'I' for Inactive)
REMARK    1  A    between atoms: O1_1  and  C1_2
REMARK    2  A    between atoms: C1_2  and  C2_3
REMARK    3  A    between atoms: C2_3  and  C3_4
REMARK    4  A    between atoms: C3_4  and  C4_5
REMARK    5  A    between atoms: C4_5  and  N1_6
REMARK    6  A    between atoms: C7_10  and  O2_11
REMARK    7  A    between atoms: N4_14  and  C9_15
REMARK    8  A    between atoms: C9_15  and  C10_16
REMARK                            x       y       z     vdW  Elec       q    Type
REMARK                         _______ _______ _______ _____ _____    ______ ____
ROOT
ATOM      1  N1  UNL     1     143.249 164.405 165.614  0.00  0.00    +0.000 N 
ATOM      2  C5  UNL     1     142.460 165.438 165.279  0.00  0.00    +0.000 A 
ATOM      3  N2  UNL     1     143.169 166.580 165.301  0.00  0.00    +0.000 NA
ATOM      4  C6  UNL     1     144.421 166.293 165.653  0.00  0.00    +0.000 A 
ATOM      5  C7  UNL     1     145.589 167.020 165.847  0.00  0.00    +0.000 C 
ATOM      6  N3  UNL     1     146.672 166.324 166.211  0.00  0.00    +0.000 NA
ATOM      7  C8  UNL     1     146.735 165.009 166.403  0.00  0.00    +0.000 C 
ATOM      8  N4  UNL     1     147.968 164.366 166.797  0.00  0.00    +0.000 N 
ATOM      9  N5  UNL     1     145.614 164.285 166.221  0.00  0.00    +0.000 NA
ATOM     10  C16 UNL     1     144.474 164.930 165.849  0.00  0.00    +0.000 A 
ATOM     11  H12 UNL     1     147.999 163.334 166.944  0.00  0.00    +0.000 HD
ENDROOT
BRANCH   5  12
ATOM     12  O2  UNL     1     145.560 168.373 165.658  0.00  0.00    +0.000 OA
ATOM     13  H11 UNL     1     145.606 168.741 164.726  0.00  0.00    +0.000 HD
ENDBRANCH   5  12
BRANCH   1  14
ATOM     14  C4  UNL     1     142.874 162.977 165.711  0.00  0.00    +0.000 C 
BRANCH  14  15
ATOM     15  C3  UNL     1     143.165 162.336 164.379  0.00  0.00    +0.000 C 
BRANCH  15  16
ATOM     16  C2  UNL     1     144.319 161.409 164.340  0.00  0.00    +0.000 C 
BRANCH  16  17
ATOM     17  C1  UNL     1     144.605 160.734 165.640  0.00  0.00    +0.000 C 
BRANCH  17  18
ATOM     18  O1  UNL     1     145.748 161.227 166.220  0.00  0.00    +0.000 OA
ATOM     19  H1  UNL     1     145.943 162.157 165.973  0.00  0.00    +0.000 HD
ENDBRANCH  17  18
ENDBRANCH  16  17
ENDBRANCH  15  16
ENDBRANCH  14  15
ENDBRANCH   1  14
BRANCH   8  20
ATOM     20  C9  UNL     1     149.113 165.203 166.971  0.00  0.00    +0.000 C 
BRANCH  20  21
ATOM     21  C10 UNL     1     150.244 164.883 166.113  0.00  0.00    +0.000 A 
ATOM     22  C11 UNL     1     150.776 165.817 165.252  0.00  0.00    +0.000 A 
ATOM     23  C12 UNL     1     151.862 165.507 164.430  0.00  0.00    +0.000 A 
ATOM     24  C13 UNL     1     152.429 164.258 164.459  0.00  0.00    +0.000 A 
ATOM     25 CL1  UNL     1     153.794 163.902 163.413  0.00  0.00    +0.000 Cl
ATOM     26  C14 UNL     1     151.907 163.319 165.315  0.00  0.00    +0.000 A 
ATOM     27 CL2  UNL     1     152.639 161.728 165.345  0.00  0.00    +0.000 Cl
ATOM     28  C15 UNL     1     150.827 163.638 166.127  0.00  0.00    +0.000 A 
ENDBRANCH  20  21
ENDBRANCH   8  20
TORSDOF 8
ENDMDL
MODEL 2
REMARK VINA RESULT:      -6.0      2.841      3.628
REMARK  Name = ./3D_structures\o37_MMV1593542_3D.pdb
REMARK  8 active torsions:
REMARK  status: ('A' for Active; 'I' for Inactive)
REMARK    1  A    between atoms: O1_1  and  C1_2
REMARK    2  A    between atoms: C1_2  and  C2_3
REMARK    3  A    between atoms: C2_3  and  C3_4
REMARK    4  A    between atoms: C3_4  and  C4_5
REMARK    5  A    between atoms: C4_5  and  N1_6
REMARK    6  A    between atoms: C7_10  and  O2_11
REMARK    7  A    between atoms: N4_14  and  C9_15
REMARK    8  A    between atoms: C9_15  and  C10_16
REMARK                            x       y       z     vdW  Elec       q    Type
REMARK                         _______ _______ _______ _____ _____    ______ ____
ROOT
ATOM      1  N1  UNL     1     143.447 164.359 165.249  0.00  0.00    +0.000 N 
ATOM      2  C5  UNL     1     142.501 165.284 165.025  0.00  0.00    +0.000 A 
ATOM      3  N2  UNL     1     143.016 166.515 165.187  0.00  0.00    +0.000 NA
ATOM      4  C6  UNL     1     144.300 166.394 165.518  0.00  0.00    +0.000 A 
ATOM      5  C7  UNL     1     145.338 167.272 165.808  0.00  0.00    +0.000 C 
ATOM      6  N3  UNL     1     146.521 166.722 166.102  0.00  0.00    +0.000 NA
ATOM      7  C8  UNL     1     146.796 165.421 166.143  0.00  0.00    +0.000 C 
ATOM      8  N4  UNL     1     148.119 164.943 166.475  0.00  0.00    +0.000 N 
ATOM      9  N5  UNL     1     145.805 164.552 165.866  0.00  0.00    +0.000 NA
ATOM     10  C16 UNL     1     144.574 165.044 165.557  0.00  0.00    +0.000 A 
ATOM     11  H12 UNL     1     148.317 163.920 166.503  0.00  0.00    +0.000 HD
ENDROOT
BRANCH   5  12
ATOM     12  O2  UNL     1     145.090 168.616 165.775  0.00  0.00    +0.000 OA
ATOM     13  H11 UNL     1     145.794 169.254 166.095  0.00  0.00    +0.000 HD
ENDBRANCH   5  12
BRANCH   1  14
ATOM     14  C4  UNL     1     143.307 162.888 165.178  0.00  0.00    +0.000 C 
BRANCH  14  15
ATOM     15  C3  UNL     1     143.134 162.515 163.728  0.00  0.00    +0.000 C 
BRANCH  15  16
ATOM     16  C2  UNL     1     144.334 161.977 163.047  0.00  0.00    +0.000 C 
BRANCH  16  17
ATOM     17  C1  UNL     1     144.607 160.539 163.335  0.00  0.00    +0.000 C 
BRANCH  17  18
ATOM     18  O1  UNL     1     145.825 160.150 162.833  0.00  0.00    +0.000 OA
ATOM     19  H1  UNL     1     146.554 160.204 163.488  0.00  0.00    +0.000 HD
ENDBRANCH  17  18
ENDBRANCH  16  17
ENDBRANCH  15  16
ENDBRANCH  14  15
ENDBRANCH   1  14
BRANCH   8  20
ATOM     20  C9  UNL     1     149.116 165.928 166.757  0.00  0.00    +0.000 C 
BRANCH  20  21
ATOM     21  C10 UNL     1     149.584 165.951 168.135  0.00  0.00    +0.000 A 
ATOM     22  C11 UNL     1     148.804 165.472 169.164  0.00  0.00    +0.000 A 
ATOM     23  C12 UNL     1     149.255 165.494 170.486  0.00  0.00    +0.000 A 
ATOM     24  C13 UNL     1     150.493 165.999 170.794  0.00  0.00    +0.000 A 
ATOM     25 CL1  UNL     1     151.031 166.013 172.466  0.00  0.00    +0.000 Cl
ATOM     26  C14 UNL     1     151.280 166.480 169.776  0.00  0.00    +0.000 A 
ATOM     27 CL2  UNL     1     152.859 167.121 170.181  0.00  0.00    +0.000 Cl
ATOM     28  C15 UNL     1     150.821 166.452 168.466  0.00  0.00    +0.000 A 
ENDBRANCH  20  21
ENDBRANCH   8  20
TORSDOF 8
ENDMDL
MODEL 3
REMARK VINA RESULT:      -5.9      0.990      1.179
REMARK  Name = ./3D_structures\o37_MMV1593542_3D.pdb
REMARK  8 active torsions:
REMARK  status: ('A' for Active; 'I' for Inactive)
REMARK    1  A    between atoms: O1_1  and  C1_2
REMARK    2  A    between atoms: C1_2  and  C2_3
REMARK    3  A    between atoms: C2_3  and  C3_4
REMARK    4  A    between atoms: C3_4  and  C4_5
REMARK    5  A    between atoms: C4_5  and  N1_6
REMARK    6  A    between atoms: C7_10  and  O2_11
REMARK    7  A    between atoms: N4_14  and  C9_15
REMARK    8  A    between atoms: C9_15  and  C10_16
REMARK                            x       y       z     vdW  Elec       q    Type
REMARK                         _______ _______ _______ _____ _____    ______ ____
ROOT
ATOM      1  N1  UNL     1     143.348 164.381 165.506  0.00  0.00    +0.000 N 
ATOM      2  C5  UNL     1     142.419 165.328 165.308  0.00  0.00    +0.000 A 
ATOM      3  N2  UNL     1     142.989 166.545 165.350  0.00  0.00    +0.000 NA
ATOM      4  C6  UNL     1     144.292 166.392 165.576  0.00  0.00    +0.000 A 
ATOM      5  C7  UNL     1     145.381 167.243 165.721  0.00  0.00    +0.000 C 
ATOM      6  N3  UNL     1     146.566 166.664 165.947  0.00  0.00    +0.000 NA
ATOM      7  C8  UNL     1     146.798 165.357 166.043  0.00  0.00    +0.000 C 
ATOM      8  N4  UNL     1     148.127 164.847 166.290  0.00  0.00    +0.000 N 
ATOM      9  N5  UNL     1     145.756 164.515 165.906  0.00  0.00    +0.000 NA
ATOM     10  C16 UNL     1     144.521 165.037 165.675  0.00  0.00    +0.000 A 
ATOM     11  H12 UNL     1     148.291 163.820 166.364  0.00  0.00    +0.000 HD
ENDROOT
BRANCH   5  12
ATOM     12  O2  UNL     1     145.178 168.591 165.627  0.00  0.00    +0.000 OA
ATOM     13  H11 UNL     1     145.491 169.188 166.369  0.00  0.00    +0.000 HD
ENDBRANCH   5  12
BRANCH   1  14
ATOM     14  C4  UNL     1     143.152 162.915 165.538  0.00  0.00    +0.000 C 
BRANCH  14  15
ATOM     15  C3  UNL     1     143.196 162.480 166.980  0.00  0.00    +0.000 C 
BRANCH  15  16
ATOM     16  C2  UNL     1     144.004 161.274 167.272  0.00  0.00    +0.000 C 
BRANCH  16  17
ATOM     17  C1  UNL     1     145.360 161.565 167.824  0.00  0.00    +0.000 C 
BRANCH  17  18
ATOM     18  O1  UNL     1     146.291 161.694 166.824  0.00  0.00    +0.000 OA
ATOM     19  H1  UNL     1     147.034 161.057 166.895  0.00  0.00    +0.000 HD
ENDBRANCH  17  18
ENDBRANCH  16  17
ENDBRANCH  15  16
ENDBRANCH  14  15
ENDBRANCH   1  14
BRANCH   8  20
ATOM     20  C9  UNL     1     149.179 165.806 166.424  0.00  0.00    +0.000 C 
BRANCH  20  21
ATOM     21  C10 UNL     1     150.488 165.349 165.980  0.00  0.00    +0.000 A 
ATOM     22  C11 UNL     1     151.108 165.912 164.887  0.00  0.00    +0.000 A 
ATOM     23  C12 UNL     1     152.364 165.472 164.463  0.00  0.00    +0.000 A 
ATOM     24  C13 UNL     1     153.015 164.463 165.127  0.00  0.00    +0.000 A 
ATOM     25 CL1  UNL     1     154.593 163.934 164.568  0.00  0.00    +0.000 Cl
ATOM     26  C14 UNL     1     152.405 163.895 166.220  0.00  0.00    +0.000 A 
ATOM     27 CL2  UNL     1     153.245 162.609 167.061  0.00  0.00    +0.000 Cl
ATOM     28  C15 UNL     1     151.156 164.340 166.632  0.00  0.00    +0.000 A 
ENDBRANCH  20  21
ENDBRANCH   8  20
TORSDOF 8
ENDMDL
MODEL 4
REMARK VINA RESULT:      -5.6      4.441      6.214
REMARK  Name = ./3D_structures\o37_MMV1593542_3D.pdb
REMARK  8 active torsions:
REMARK  status: ('A' for Active; 'I' for Inactive)
REMARK    1  A    between atoms: O1_1  and  C1_2
REMARK    2  A    between atoms: C1_2  and  C2_3
REMARK    3  A    between atoms: C2_3  and  C3_4
REMARK    4  A    between atoms: C3_4  and  C4_5
REMARK    5  A    between atoms: C4_5  and  N1_6
REMARK    6  A    between atoms: C7_10  and  O2_11
REMARK    7  A    between atoms: N4_14  and  C9_15
REMARK    8  A    between atoms: C9_15  and  C10_16
REMARK                            x       y       z     vdW  Elec       q    Type
REMARK                         _______ _______ _______ _____ _____    ______ ____
ROOT
ATOM      1  N1  UNL     1     146.178 163.650 166.329  0.00  0.00    +0.000 N 
ATOM      2  C5  UNL     1     145.854 162.451 166.837  0.00  0.00    +0.000 A 
ATOM      3  N2  UNL     1     146.750 162.093 167.772  0.00  0.00    +0.000 NA
ATOM      4  C6  UNL     1     147.662 163.058 167.874  0.00  0.00    +0.000 A 
ATOM      5  C7  UNL     1     148.804 163.269 168.638  0.00  0.00    +0.000 C 
ATOM      6  N3  UNL     1     149.462 164.414 168.425  0.00  0.00    +0.000 NA
ATOM      7  C8  UNL     1     149.127 165.365 167.555  0.00  0.00    +0.000 C 
ATOM      8  N4  UNL     1     149.920 166.565 167.413  0.00  0.00    +0.000 N 
ATOM      9  N5  UNL     1     148.025 165.180 166.804  0.00  0.00    +0.000 NA
ATOM     10  C16 UNL     1     147.306 164.036 166.970  0.00  0.00    +0.000 A 
ATOM     11  H12 UNL     1     149.644 167.299 166.726  0.00  0.00    +0.000 HD
ENDROOT
BRANCH   5  12
ATOM     12  O2  UNL     1     149.176 162.313 169.541  0.00  0.00    +0.000 OA
ATOM     13  H11 UNL     1     149.213 161.353 169.253  0.00  0.00    +0.000 HD
ENDBRANCH   5  12
BRANCH   1  14
ATOM     14  C4  UNL     1     145.463 164.410 165.280  0.00  0.00    +0.000 C 
BRANCH  14  15
ATOM     15  C3  UNL     1     144.271 165.067 165.927  0.00  0.00    +0.000 C 
BRANCH  15  16
ATOM     16  C2  UNL     1     144.081 166.506 165.632  0.00  0.00    +0.000 C 
BRANCH  16  17
ATOM     17  C1  UNL     1     145.333 167.315 165.702  0.00  0.00    +0.000 C 
BRANCH  17  18
ATOM     18  O1  UNL     1     145.062 168.661 165.692  0.00  0.00    +0.000 OA
ATOM     19  H1  UNL     1     145.412 169.137 166.475  0.00  0.00    +0.000 HD
ENDBRANCH  17  18
ENDBRANCH  16  17
ENDBRANCH  15  16
ENDBRANCH  14  15
ENDBRANCH   1  14
BRANCH   8  20
ATOM     20  C9  UNL     1     151.075 166.685 168.246  0.00  0.00    +0.000 C 
BRANCH  20  21
ATOM     21  C10 UNL     1     150.886 167.485 169.447  0.00  0.00    +0.000 A 
ATOM     22  C11 UNL     1     150.904 166.910 170.698  0.00  0.00    +0.000 A 
ATOM     23  C12 UNL     1     150.723 167.680 171.850  0.00  0.00    +0.000 A 
ATOM     24  C13 UNL     1     150.521 169.034 171.763  0.00  0.00    +0.000 A 
ATOM     25 CL1  UNL     1     150.297 169.972 173.231  0.00  0.00    +0.000 Cl
ATOM     26  C14 UNL     1     150.503 169.617 170.520  0.00  0.00    +0.000 A 
ATOM     27 CL2  UNL     1     150.245 171.347 170.421  0.00  0.00    +0.000 Cl
ATOM     28  C15 UNL     1     150.684 168.843 169.382  0.00  0.00    +0.000 A 
ENDBRANCH  20  21
ENDBRANCH   8  20
TORSDOF 8
ENDMDL
MODEL 5
REMARK VINA RESULT:      -5.5      3.798      5.498
REMARK  Name = ./3D_structures\o37_MMV1593542_3D.pdb
REMARK  8 active torsions:
REMARK  status: ('A' for Active; 'I' for Inactive)
REMARK    1  A    between atoms: O1_1  and  C1_2
REMARK    2  A    between atoms: C1_2  and  C2_3
REMARK    3  A    between atoms: C2_3  and  C3_4
REMARK    4  A    between atoms: C3_4  and  C4_5
REMARK    5  A    between atoms: C4_5  and  N1_6
REMARK    6  A    between atoms: C7_10  and  O2_11
REMARK    7  A    between atoms: N4_14  and  C9_15
REMARK    8  A    between atoms: C9_15  and  C10_16
REMARK                            x       y       z     vdW  Elec       q    Type
REMARK                         _______ _______ _______ _____ _____    ______ ____
ROOT
ATOM      1  N1  UNL     1     146.449 164.109 168.491  0.00  0.00    +0.000 N 
ATOM      2  C5  UNL     1     146.080 164.948 169.471  0.00  0.00    +0.000 A 
ATOM      3  N2  UNL     1     147.113 165.162 170.304  0.00  0.00    +0.000 NA
ATOM      4  C6  UNL     1     148.158 164.461 169.869  0.00  0.00    +0.000 A 
ATOM      5  C7  UNL     1     149.470 164.273 170.286  0.00  0.00    +0.000 C 
ATOM      6  N3  UNL     1     150.222 163.457 169.539  0.00  0.00    +0.000 NA
ATOM      7  C8  UNL     1     149.835 162.813 168.440  0.00  0.00    +0.000 C 
ATOM      8  N4  UNL     1     150.742 161.955 167.713  0.00  0.00    +0.000 N 
ATOM      9  N5  UNL     1     148.567 162.982 168.019  0.00  0.00    +0.000 NA
ATOM     10  C16 UNL     1     147.745 163.800 168.733  0.00  0.00    +0.000 A 
ATOM     11  H12 UNL     1     150.421 161.458 166.855  0.00  0.00    +0.000 HD
ENDROOT
BRANCH   5  12
ATOM     12  O2  UNL     1     149.901 164.919 171.410  0.00  0.00    +0.000 OA
ATOM     13  H11 UNL     1     150.254 164.382 172.180  0.00  0.00    +0.000 HD
ENDBRANCH   5  12
BRANCH   1  14
ATOM     14  C4  UNL     1     145.624 163.611 167.369  0.00  0.00    +0.000 C 
BRANCH  14  15
ATOM     15  C3  UNL     1     145.837 164.537 166.200  0.00  0.00    +0.000 C 
BRANCH  15  16
ATOM     16  C2  UNL     1     144.876 165.656 166.072  0.00  0.00    +0.000 C 
BRANCH  16  17
ATOM     17  C1  UNL     1     145.489 166.942 165.627  0.00  0.00    +0.000 C 
BRANCH  17  18
ATOM     18  O1  UNL     1     146.796 166.767 165.242  0.00  0.00    +0.000 OA
ATOM     19  H1  UNL     1     147.053 167.314 164.469  0.00  0.00    +0.000 HD
ENDBRANCH  17  18
ENDBRANCH  16  17
ENDBRANCH  15  16
ENDBRANCH  14  15
ENDBRANCH   1  14
BRANCH   8  20
ATOM     20  C9  UNL     1     152.070 161.828 168.226  0.00  0.00    +0.000 C 
BRANCH  20  21
ATOM     21  C10 UNL     1     152.855 160.752 167.638  0.00  0.00    +0.000 A 
ATOM     22  C11 UNL     1     153.244 160.789 166.318  0.00  0.00    +0.000 A 
ATOM     23  C12 UNL     1     153.997 159.755 165.757  0.00  0.00    +0.000 A 
ATOM     24  C13 UNL     1     154.371 158.671 166.510  0.00  0.00    +0.000 A 
ATOM     25 CL1  UNL     1     155.318 157.389 165.774  0.00  0.00    +0.000 Cl
ATOM     26  C14 UNL     1     153.988 158.625 167.829  0.00  0.00    +0.000 A 
ATOM     27 CL2  UNL     1     154.471 157.236 168.782  0.00  0.00    +0.000 Cl
ATOM     28  C15 UNL     1     153.240 159.657 168.376  0.00  0.00    +0.000 A 
ENDBRANCH  20  21
ENDBRANCH   8  20
TORSDOF 8
ENDMDL
MODEL 6
REMARK VINA RESULT:      -5.5      2.566      4.195
REMARK  Name = ./3D_structures\o37_MMV1593542_3D.pdb
REMARK  8 active torsions:
REMARK  status: ('A' for Active; 'I' for Inactive)
REMARK    1  A    between atoms: O1_1  and  C1_2
REMARK    2  A    between atoms: C1_2  and  C2_3
REMARK    3  A    between atoms: C2_3  and  C3_4
REMARK    4  A    between atoms: C3_4  and  C4_5
REMARK    5  A    between atoms: C4_5  and  N1_6
REMARK    6  A    between atoms: C7_10  and  O2_11
REMARK    7  A    between atoms: N4_14  and  C9_15
REMARK    8  A    between atoms: C9_15  and  C10_16
REMARK                            x       y       z     vdW  Elec       q    Type
REMARK                         _______ _______ _______ _____ _____    ______ ____
ROOT
ATOM      1  N1  UNL     1     146.182 164.123 167.647  0.00  0.00    +0.000 N 
ATOM      2  C5  UNL     1     145.867 164.220 168.948  0.00  0.00    +0.000 A 
ATOM      3  N2  UNL     1     146.891 164.766 169.627  0.00  0.00    +0.000 NA
ATOM      4  C6  UNL     1     147.875 165.025 168.769  0.00  0.00    +0.000 A 
ATOM      5  C7  UNL     1     149.151 165.571 168.857  0.00  0.00    +0.000 C 
ATOM      6  N3  UNL     1     149.843 165.658 167.715  0.00  0.00    +0.000 NA
ATOM      7  C8  UNL     1     149.427 165.274 166.511  0.00  0.00    +0.000 C 
ATOM      8  N4  UNL     1     150.267 165.419 165.344  0.00  0.00    +0.000 N 
ATOM      9  N5  UNL     1     148.194 164.741 166.404  0.00  0.00    +0.000 NA
ATOM     10  C16 UNL     1     147.435 164.623 167.527  0.00  0.00    +0.000 A 
ATOM     11  H12 UNL     1     149.926 165.111 164.408  0.00  0.00    +0.000 HD
ENDROOT
BRANCH   5  12
ATOM     12  O2  UNL     1     149.609 165.977 170.078  0.00  0.00    +0.000 OA
ATOM     13  H11 UNL     1     148.951 166.211 170.797  0.00  0.00    +0.000 HD
ENDBRANCH   5  12
BRANCH   1  14
ATOM     14  C4  UNL     1     145.346 163.582 166.553  0.00  0.00    +0.000 C 
BRANCH  14  15
ATOM     15  C3  UNL     1     145.245 164.644 165.488  0.00  0.00    +0.000 C 
BRANCH  15  16
ATOM     16  C2  UNL     1     144.489 165.864 165.854  0.00  0.00    +0.000 C 
BRANCH  16  17
ATOM     17  C1  UNL     1     145.251 167.134 165.670  0.00  0.00    +0.000 C 
BRANCH  17  18
ATOM     18  O1  UNL     1     146.507 166.897 165.169  0.00  0.00    +0.000 OA
ATOM     19  H1  UNL     1     146.922 167.687 164.761  0.00  0.00    +0.000 HD
ENDBRANCH  17  18
ENDBRANCH  16  17
ENDBRANCH  15  16
ENDBRANCH  14  15
ENDBRANCH   1  14
BRANCH   8  20
ATOM     20  C9  UNL     1     151.561 165.992 165.541  0.00  0.00    +0.000 C 
BRANCH  20  21
ATOM     21  C10 UNL     1     152.623 165.404 164.736  0.00  0.00    +0.000 A 
ATOM     22  C11 UNL     1     152.437 164.217 164.065  0.00  0.00    +0.000 A 
ATOM     23  C12 UNL     1     153.456 163.655 163.292  0.00  0.00    +0.000 A 
ATOM     24  C13 UNL     1     154.675 164.275 163.184  0.00  0.00    +0.000 A 
ATOM     25 CL1  UNL     1     155.936 163.542 162.205  0.00  0.00    +0.000 Cl
ATOM     26  C14 UNL     1     154.872 165.461 163.850  0.00  0.00    +0.000 A 
ATOM     27 CL2  UNL     1     156.432 166.244 163.703  0.00  0.00    +0.000 Cl
ATOM     28  C15 UNL     1     153.851 166.009 164.614  0.00  0.00    +0.000 A 
ENDBRANCH  20  21
ENDBRANCH   8  20
TORSDOF 8
ENDMDL
MODEL 7
REMARK VINA RESULT:      -5.4      2.791      4.051
REMARK  Name = ./3D_structures\o37_MMV1593542_3D.pdb
REMARK  8 active torsions:
REMARK  status: ('A' for Active; 'I' for Inactive)
REMARK    1  A    between atoms: O1_1  and  C1_2
REMARK    2  A    between atoms: C1_2  and  C2_3
REMARK    3  A    between atoms: C2_3  and  C3_4
REMARK    4  A    between atoms: C3_4  and  C4_5
REMARK    5  A    between atoms: C4_5  and  N1_6
REMARK    6  A    between atoms: C7_10  and  O2_11
REMARK    7  A    between atoms: N4_14  and  C9_15
REMARK    8  A    between atoms: C9_15  and  C10_16
REMARK                            x       y       z     vdW  Elec       q    Type
REMARK                         _______ _______ _______ _____ _____    ______ ____
ROOT
ATOM      1  N1  UNL     1     146.012 165.039 165.739  0.00  0.00    +0.000 N 
ATOM      2  C5  UNL     1     146.155 166.334 165.415  0.00  0.00    +0.000 A 
ATOM      3  N2  UNL     1     147.288 166.818 165.952  0.00  0.00    +0.000 NA
ATOM      4  C6  UNL     1     147.885 165.839 166.629  0.00  0.00    +0.000 A 
ATOM      5  C7  UNL     1     149.050 165.717 167.379  0.00  0.00    +0.000 C 
ATOM      6  N3  UNL     1     149.293 164.514 167.912  0.00  0.00    +0.000 NA
ATOM      7  C8  UNL     1     148.531 163.430 167.791  0.00  0.00    +0.000 C 
ATOM      8  N4  UNL     1     148.899 162.179 168.415  0.00  0.00    +0.000 N 
ATOM      9  N5  UNL     1     147.398 163.527 167.069  0.00  0.00    +0.000 NA
ATOM     10  C16 UNL     1     147.088 164.723 166.498  0.00  0.00    +0.000 A 
ATOM     11  H12 UNL     1     148.290 161.340 168.310  0.00  0.00    +0.000 HD
ENDROOT
BRANCH   5  12
ATOM     12  O2  UNL     1     149.856 166.811 167.523  0.00  0.00    +0.000 OA
ATOM     13  H11 UNL     1     149.465 167.667 167.870  0.00  0.00    +0.000 HD
ENDBRANCH   5  12
BRANCH   1  14
ATOM     14  C4  UNL     1     144.911 164.129 165.357  0.00  0.00    +0.000 C 
BRANCH  14  15
ATOM     15  C3  UNL     1     143.722 164.463 166.220  0.00  0.00    +0.000 C 
BRANCH  15  16
ATOM     16  C2  UNL     1     143.086 163.324 166.921  0.00  0.00    +0.000 C 
BRANCH  16  17
ATOM     17  C1  UNL     1     144.052 162.337 167.486  0.00  0.00    +0.000 C 
BRANCH  17  18
ATOM     18  O1  UNL     1     144.679 162.833 168.603  0.00  0.00    +0.000 OA
ATOM     19  H1  UNL     1     145.635 163.012 168.469  0.00  0.00    +0.000 HD
ENDBRANCH  17  18
ENDBRANCH  16  17
ENDBRANCH  15  16
ENDBRANCH  14  15
ENDBRANCH   1  14
BRANCH   8  20
ATOM     20  C9  UNL     1     150.116 162.159 169.165  0.00  0.00    +0.000 C 
BRANCH  20  21
ATOM     21  C10 UNL     1     151.149 161.281 168.636  0.00  0.00    +0.000 A 
ATOM     22  C11 UNL     1     151.665 160.250 169.389  0.00  0.00    +0.000 A 
ATOM     23  C12 UNL     1     152.656 159.408 168.879  0.00  0.00    +0.000 A 
ATOM     24  C13 UNL     1     153.144 159.588 167.609  0.00  0.00    +0.000 A 
ATOM     25 CL1  UNL     1     154.390 158.512 166.999  0.00  0.00    +0.000 Cl
ATOM     26  C14 UNL     1     152.636 160.614 166.849  0.00  0.00    +0.000 A 
ATOM     27 CL2  UNL     1     153.265 160.834 165.230  0.00  0.00    +0.000 Cl
ATOM     28  C15 UNL     1     151.651 161.444 167.366  0.00  0.00    +0.000 A 
ENDBRANCH  20  21
ENDBRANCH   8  20
TORSDOF 8
ENDMDL
MODEL 8
REMARK VINA RESULT:      -5.4      2.256      3.144
REMARK  Name = ./3D_structures\o37_MMV1593542_3D.pdb
REMARK  8 active torsions:
REMARK  status: ('A' for Active; 'I' for Inactive)
REMARK    1  A    between atoms: O1_1  and  C1_2
REMARK    2  A    between atoms: C1_2  and  C2_3
REMARK    3  A    between atoms: C2_3  and  C3_4
REMARK    4  A    between atoms: C3_4  and  C4_5
REMARK    5  A    between atoms: C4_5  and  N1_6
REMARK    6  A    between atoms: C7_10  and  O2_11
REMARK    7  A    between atoms: N4_14  and  C9_15
REMARK    8  A    between atoms: C9_15  and  C10_16
REMARK                            x       y       z     vdW  Elec       q    Type
REMARK                         _______ _______ _______ _____ _____    ______ ____
ROOT
ATOM      1  N1  UNL     1     145.766 163.361 167.677  0.00  0.00    +0.000 N 
ATOM      2  C5  UNL     1     144.621 164.020 167.443  0.00  0.00    +0.000 A 
ATOM      3  N2  UNL     1     144.882 165.187 166.828  0.00  0.00    +0.000 NA
ATOM      4  C6  UNL     1     146.199 165.289 166.660  0.00  0.00    +0.000 A 
ATOM      5  C7  UNL     1     147.059 166.231 166.107  0.00  0.00    +0.000 C 
ATOM      6  N3  UNL     1     148.364 165.940 166.141  0.00  0.00    +0.000 NA
ATOM      7  C8  UNL     1     148.913 164.840 166.651  0.00  0.00    +0.000 C 
ATOM      8  N4  UNL     1     150.343 164.635 166.630  0.00  0.00    +0.000 N 
ATOM      9  N5  UNL     1     148.097 163.915 167.193  0.00  0.00    +0.000 NA
ATOM     10  C16 UNL     1     146.756 164.147 167.192  0.00  0.00    +0.000 A 
ATOM     11  H12 UNL     1     150.757 163.767 167.035  0.00  0.00    +0.000 HD
ENDROOT
BRANCH   5  12
ATOM     12  O2  UNL     1     146.529 167.372 165.574  0.00  0.00    +0.000 OA
ATOM     13  H11 UNL     1     145.633 167.693 165.892  0.00  0.00    +0.000 HD
ENDBRANCH   5  12
BRANCH   1  14
ATOM     14  C4  UNL     1     145.933 162.044 168.331  0.00  0.00    +0.000 C 
BRANCH  14  15
ATOM     15  C3  UNL     1     146.262 161.040 167.257  0.00  0.00    +0.000 C 
BRANCH  15  16
ATOM     16  C2  UNL     1     147.169 159.938 167.652  0.00  0.00    +0.000 C 
BRANCH  16  17
ATOM     17  C1  UNL     1     148.561 160.374 167.965  0.00  0.00    +0.000 C 
BRANCH  17  18
ATOM     18  O1  UNL     1     149.088 161.136 166.951  0.00  0.00    +0.000 OA
ATOM     19  H1  UNL     1     148.629 161.015 166.092  0.00  0.00    +0.000 HD
ENDBRANCH  17  18
ENDBRANCH  16  17
ENDBRANCH  15  16
ENDBRANCH  14  15
ENDBRANCH   1  14
BRANCH   8  20
ATOM     20  C9  UNL     1     151.140 165.663 166.039  0.00  0.00    +0.000 C 
BRANCH  20  21
ATOM     21  C10 UNL     1     152.162 165.194 165.114  0.00  0.00    +0.000 A 
ATOM     22  C11 UNL     1     151.990 164.037 164.387  0.00  0.00    +0.000 A 
ATOM     23  C12 UNL     1     152.972 163.589 163.499  0.00  0.00    +0.000 A 
ATOM     24  C13 UNL     1     154.137 164.293 163.330  0.00  0.00    +0.000 A 
ATOM     25 CL1  UNL     1     155.351 163.702 162.207  0.00  0.00    +0.000 Cl
ATOM     26  C14 UNL     1     154.318 165.449 164.050  0.00  0.00    +0.000 A 
ATOM     27 CL2  UNL     1     155.809 166.340 163.825  0.00  0.00    +0.000 Cl
ATOM     28  C15 UNL     1     153.336 165.885 164.929  0.00  0.00    +0.000 A 
ENDBRANCH  20  21
ENDBRANCH   8  20
TORSDOF 8
ENDMDL
MODEL 9
REMARK VINA RESULT:      -5.2      3.655      4.528
REMARK  Name = ./3D_structures\o37_MMV1593542_3D.pdb
REMARK  8 active torsions:
REMARK  status: ('A' for Active; 'I' for Inactive)
REMARK    1  A    between atoms: O1_1  and  C1_2
REMARK    2  A    between atoms: C1_2  and  C2_3
REMARK    3  A    between atoms: C2_3  and  C3_4
REMARK    4  A    between atoms: C3_4  and  C4_5
REMARK    5  A    between atoms: C4_5  and  N1_6
REMARK    6  A    between atoms: C7_10  and  O2_11
REMARK    7  A    between atoms: N4_14  and  C9_15
REMARK    8  A    between atoms: C9_15  and  C10_16
REMARK                            x       y       z     vdW  Elec       q    Type
REMARK                         _______ _______ _______ _____ _____    ______ ____
ROOT
ATOM      1  N1  UNL     1     145.271 163.147 167.134  0.00  0.00    +0.000 N 
ATOM      2  C5  UNL     1     144.631 163.992 167.957  0.00  0.00    +0.000 A 
ATOM      3  N2  UNL     1     145.462 164.395 168.934  0.00  0.00    +0.000 NA
ATOM      4  C6  UNL     1     146.645 163.812 168.749  0.00  0.00    +0.000 A 
ATOM      5  C7  UNL     1     147.872 163.826 169.402  0.00  0.00    +0.000 C 
ATOM      6  N3  UNL     1     148.839 163.069 168.872  0.00  0.00    +0.000 NA
ATOM      7  C8  UNL     1     148.737 162.310 167.783  0.00  0.00    +0.000 C 
ATOM      8  N4  UNL     1     149.857 161.533 167.302  0.00  0.00    +0.000 N 
ATOM      9  N5  UNL     1     147.557 162.281 167.136  0.00  0.00    +0.000 NA
ATOM     10  C16 UNL     1     146.528 163.028 167.622  0.00  0.00    +0.000 A 
ATOM     11  H12 UNL     1     149.760 160.943 166.449  0.00  0.00    +0.000 HD
ENDROOT
BRANCH   5  12
ATOM     12  O2  UNL     1     148.011 164.595 170.523  0.00  0.00    +0.000 OA
ATOM     13  H11 UNL     1     148.799 164.450 171.124  0.00  0.00    +0.000 HD
ENDBRANCH   5  12
BRANCH   1  14
ATOM     14  C4  UNL     1     144.729 162.472 165.934  0.00  0.00    +0.000 C 
BRANCH  14  15
ATOM     15  C3  UNL     1     143.849 161.342 166.404  0.00  0.00    +0.000 C 
BRANCH  15  16
ATOM     16  C2  UNL     1     144.547 160.166 166.972  0.00  0.00    +0.000 C 
BRANCH  16  17
ATOM     17  C1  UNL     1     145.368 159.406 165.984  0.00  0.00    +0.000 C 
BRANCH  17  18
ATOM     18  O1  UNL     1     146.711 159.550 166.232  0.00  0.00    +0.000 OA
ATOM     19  H1  UNL     1     147.282 159.098 165.574  0.00  0.00    +0.000 HD
ENDBRANCH  17  18
ENDBRANCH  16  17
ENDBRANCH  15  16
ENDBRANCH  14  15
ENDBRANCH   1  14
BRANCH   8  20
ATOM     20  C9  UNL     1     151.075 161.617 168.046  0.00  0.00    +0.000 C 
BRANCH  20  21
ATOM     21  C10 UNL     1     152.116 160.689 167.627  0.00  0.00    +0.000 A 
ATOM     22  C11 UNL     1     152.636 160.725 166.353  0.00  0.00    +0.000 A 
ATOM     23  C12 UNL     1     153.635 159.834 165.953  0.00  0.00    +0.000 A 
ATOM     24  C13 UNL     1     154.125 158.895 166.825  0.00  0.00    +0.000 A 
ATOM     25 CL1  UNL     1     155.380 157.789 166.291  0.00  0.00    +0.000 Cl
ATOM     26  C14 UNL     1     153.613 158.850 168.099  0.00  0.00    +0.000 A 
ATOM     27 CL2  UNL     1     154.247 157.647 169.203  0.00  0.00    +0.000 Cl
ATOM     28  C15 UNL     1     152.621 159.740 168.485  0.00  0.00    +0.000 A 
ENDBRANCH  20  21
ENDBRANCH   8  20
TORSDOF 8
ENDMDL
