MODEL 1
REMARK VINA RESULT:      -5.9      0.000      0.000
REMARK  Name = ./3D_structures\o40_MMV002459_3D.pdb
REMARK  16 active torsions:
REMARK  status: ('A' for Active; 'I' for Inactive)
REMARK    1  A    between atoms: N1_1  and  C1_2
REMARK    2  A    between atoms: C1_2  and  C2_3
REMARK    3  A    between atoms: C3_5  and  O2_6
REMARK    4  A    between atoms: O2_6  and  C4_7
REMARK    5  A    between atoms: C5_8  and  N2_9
REMARK    6  A    between atoms: C7_11  and  N3_12
REMARK    7  A    between atoms: C8_13  and  O3_14
REMARK    8  A    between atoms: O3_14  and  C9_15
REMARK    9  A    between atoms: C10_17  and  C11_18
REMARK   10  A    between atoms: C11_18  and  O5_19
REMARK   11  A    between atoms: C12_20  and  O6_21
REMARK   12  A    between atoms: C13_22  and  N4_23
REMARK   13  A    between atoms: C14_24  and  O7_25
REMARK   14  A    between atoms: C15_26  and  O8_27
REMARK   15  A    between atoms: C16_28  and  N5_29
REMARK   16  A    between atoms: C18_31  and  O9_32
REMARK                            x       y       z     vdW  Elec       q    Type
REMARK                         _______ _______ _______ _____ _____    ______ ____
ROOT
ATOM      1  C4  UNL     1     150.332 164.661 168.169  0.00  0.00    +0.000 C 
ATOM      2  C5  UNL     1     150.209 164.783 169.695  0.00  0.00    +0.000 C 
ATOM      3  C6  UNL     1     148.975 163.955 170.042  0.00  0.00    +0.000 C 
ATOM      4  C7  UNL     1     147.772 164.572 169.437  0.00  0.00    +0.000 C 
ATOM      5  C8  UNL     1     148.007 165.598 168.401  0.00  0.00    +0.000 C 
ATOM      6  C15 UNL     1     149.198 165.371 167.522  0.00  0.00    +0.000 C 
ENDROOT
BRANCH   2   7
ATOM      7  N2  UNL     1     150.097 166.140 170.123  0.00  0.00    +0.000 NA
ATOM      8  H9  UNL     1     150.616 166.329 170.989  0.00  0.00    +0.000 HD
ATOM      9  H10 UNL     1     149.068 166.329 170.321  0.00  0.00    +0.000 HD
ENDBRANCH   2   7
BRANCH   4  10
ATOM     10  N3  UNL     1     146.992 165.181 170.520  0.00  0.00    +0.000 NA
ATOM     11  H14 UNL     1     147.304 166.142 170.709  0.00  0.00    +0.000 HD
ATOM     12  H15 UNL     1     145.980 165.061 170.399  0.00  0.00    +0.000 HD
ENDBRANCH   4  10
BRANCH   6  13
ATOM     13  O8  UNL     1     149.622 166.611 167.044  0.00  0.00    +0.000 OA
ATOM     14  H30 UNL     1     150.174 166.540 166.225  0.00  0.00    +0.000 HD
ENDBRANCH   6  13
BRANCH   1  15
ATOM     15  O2  UNL     1     150.189 163.292 167.900  0.00  0.00    +0.000 OA
BRANCH  15  18
ATOM     16  C2  UNL     1     152.834 163.249 165.612  0.00  0.00    +0.000 C 
ATOM     17  O1  UNL     1     152.090 163.488 166.737  0.00  0.00    +0.000 OA
ATOM     18  C3  UNL     1     150.836 162.911 166.738  0.00  0.00    +0.000 C 
ATOM     19  C16 UNL     1     151.011 161.408 166.792  0.00  0.00    +0.000 C 
ATOM     20  C17 UNL     1     152.396 160.977 166.366  0.00  0.00    +0.000 C 
ATOM     21  C18 UNL     1     152.914 161.793 165.227  0.00  0.00    +0.000 C 
BRANCH  19  22
ATOM     22  N5  UNL     1     150.818 160.924 168.148  0.00  0.00    +0.000 NA
ATOM     23  H32 UNL     1     150.134 161.468 168.684  0.00  0.00    +0.000 HD
ATOM     24  H33 UNL     1     151.726 160.784 168.643  0.00  0.00    +0.000 HD
ENDBRANCH  19  22
BRANCH  21  25
ATOM     25  O9  UNL     1     154.215 161.410 164.946  0.00  0.00    +0.000 OA
ATOM     26  H37 UNL     1     154.789 162.200 164.798  0.00  0.00    +0.000 HD
ENDBRANCH  21  25
BRANCH  16  27
ATOM     27  C1  UNL     1     152.336 164.010 164.403  0.00  0.00    +0.000 C 
BRANCH  27  28
ATOM     28  N1  UNL     1     152.096 163.113 163.292  0.00  0.00    +0.000 NA
ATOM     29  H1  UNL     1     151.091 162.866 163.222  0.00  0.00    +0.000 HD
ATOM     30  H2  UNL     1     152.617 162.227 163.481  0.00  0.00    +0.000 HD
ENDBRANCH  27  28
ENDBRANCH  16  27
ENDBRANCH  15  18
ENDBRANCH   1  15
BRANCH   5  31
ATOM     31  O3  UNL     1     146.883 165.657 167.576  0.00  0.00    +0.000 OA
BRANCH  31  32
ATOM     32  C9  UNL     1     146.220 164.438 167.474  0.00  0.00    +0.000 C 
ATOM     33  O4  UNL     1     145.080 164.465 168.238  0.00  0.00    +0.000 OA
ATOM     34  C10 UNL     1     144.358 163.306 168.112  0.00  0.00    +0.000 C 
ATOM     35  C12 UNL     1     143.730 163.231 166.735  0.00  0.00    +0.000 C 
ATOM     36  C13 UNL     1     144.438 164.090 165.734  0.00  0.00    +0.000 C 
ATOM     37  C14 UNL     1     145.906 164.226 166.011  0.00  0.00    +0.000 C 
BRANCH  36  38
ATOM     38  N4  UNL     1     144.277 163.461 164.424  0.00  0.00    +0.000 NA
ATOM     39  H25 UNL     1     143.867 164.144 163.761  0.00  0.00    +0.000 HD
ATOM     40  H26 UNL     1     145.208 163.132 164.058  0.00  0.00    +0.000 HD
ENDBRANCH  36  38
BRANCH  35  41
ATOM     41  O6  UNL     1     142.399 163.603 166.844  0.00  0.00    +0.000 OA
ATOM     42  H23 UNL     1     141.780 162.848 166.684  0.00  0.00    +0.000 HD
ENDBRANCH  35  41
BRANCH  37  43
ATOM     43  O7  UNL     1     146.362 165.304 165.219  0.00  0.00    +0.000 OA
ATOM     44  H28 UNL     1     145.611 165.753 164.769  0.00  0.00    +0.000 HD
ENDBRANCH  37  43
BRANCH  34  45
ATOM     45  C11 UNL     1     145.168 162.042 168.295  0.00  0.00    +0.000 C 
BRANCH  45  46
ATOM     46  O5  UNL     1     145.388 161.918 169.688  0.00  0.00    +0.000 OA
ATOM     47  H21 UNL     1     145.844 161.076 169.905  0.00  0.00    +0.000 HD
ENDBRANCH  45  46
ENDBRANCH  34  45
ENDBRANCH  31  32
ENDBRANCH   5  31
TORSDOF 16
ENDMDL
MODEL 2
REMARK VINA RESULT:      -5.8      3.967      7.329
REMARK  Name = ./3D_structures\o40_MMV002459_3D.pdb
REMARK  16 active torsions:
REMARK  status: ('A' for Active; 'I' for Inactive)
REMARK    1  A    between atoms: N1_1  and  C1_2
REMARK    2  A    between atoms: C1_2  and  C2_3
REMARK    3  A    between atoms: C3_5  and  O2_6
REMARK    4  A    between atoms: O2_6  and  C4_7
REMARK    5  A    between atoms: C5_8  and  N2_9
REMARK    6  A    between atoms: C7_11  and  N3_12
REMARK    7  A    between atoms: C8_13  and  O3_14
REMARK    8  A    between atoms: O3_14  and  C9_15
REMARK    9  A    between atoms: C10_17  and  C11_18
REMARK   10  A    between atoms: C11_18  and  O5_19
REMARK   11  A    between atoms: C12_20  and  O6_21
REMARK   12  A    between atoms: C13_22  and  N4_23
REMARK   13  A    between atoms: C14_24  and  O7_25
REMARK   14  A    between atoms: C15_26  and  O8_27
REMARK   15  A    between atoms: C16_28  and  N5_29
REMARK   16  A    between atoms: C18_31  and  O9_32
REMARK                            x       y       z     vdW  Elec       q    Type
REMARK                         _______ _______ _______ _____ _____    ______ ____
ROOT
ATOM      1  C4  UNL     1     144.164 159.450 168.488  0.00  0.00    +0.000 C 
ATOM      2  C5  UNL     1     143.172 159.906 167.409  0.00  0.00    +0.000 C 
ATOM      3  C6  UNL     1     143.906 159.664 166.094  0.00  0.00    +0.000 C 
ATOM      4  C7  UNL     1     145.098 160.541 166.018  0.00  0.00    +0.000 C 
ATOM      5  C8  UNL     1     145.523 161.187 167.276  0.00  0.00    +0.000 C 
ATOM      6  C15 UNL     1     145.325 160.378 168.520  0.00  0.00    +0.000 C 
ENDROOT
BRANCH   2   7
ATOM      7  N2  UNL     1     142.779 161.269 167.575  0.00  0.00    +0.000 NA
ATOM      8  H9  UNL     1     141.807 161.440 167.293  0.00  0.00    +0.000 HD
ATOM      9  H10 UNL     1     143.402 161.860 166.947  0.00  0.00    +0.000 HD
ENDBRANCH   2   7
BRANCH   4  10
ATOM     10  N3  UNL     1     144.816 161.591 165.032  0.00  0.00    +0.000 NA
ATOM     11  H14 UNL     1     145.485 161.559 164.253  0.00  0.00    +0.000 HD
ATOM     12  H15 UNL     1     143.826 161.630 164.764  0.00  0.00    +0.000 HD
ENDBRANCH   4  10
BRANCH   6  13
ATOM     13  O8  UNL     1     145.200 161.261 169.592  0.00  0.00    +0.000 OA
ATOM     14  H30 UNL     1     145.511 160.874 170.449  0.00  0.00    +0.000 HD
ENDBRANCH   6  13
BRANCH   1  15
ATOM     15  O2  UNL     1     144.628 158.200 168.053  0.00  0.00    +0.000 OA
BRANCH  15  18
ATOM     16  C2  UNL     1     145.850 156.241 170.680  0.00  0.00    +0.000 C 
ATOM     17  O1  UNL     1     145.008 156.796 169.752  0.00  0.00    +0.000 OA
ATOM     18  C3  UNL     1     145.608 157.681 168.879  0.00  0.00    +0.000 C 
ATOM     19  C16 UNL     1     146.567 156.901 168.005  0.00  0.00    +0.000 C 
ATOM     20  C17 UNL     1     146.937 155.565 168.611  0.00  0.00    +0.000 C 
ATOM     21  C18 UNL     1     147.104 155.646 170.092  0.00  0.00    +0.000 C 
BRANCH  19  22
ATOM     22  N5  UNL     1     145.965 156.625 166.713  0.00  0.00    +0.000 NA
ATOM     23  H32 UNL     1     145.917 157.445 166.099  0.00  0.00    +0.000 HD
ATOM     24  H33 UNL     1     145.059 156.115 166.807  0.00  0.00    +0.000 HD
ENDBRANCH  19  22
BRANCH  21  25
ATOM     25  O9  UNL     1     147.352 154.378 170.593  0.00  0.00    +0.000 OA
ATOM     26  H37 UNL     1     146.844 154.225 171.426  0.00  0.00    +0.000 HD
ENDBRANCH  21  25
BRANCH  16  27
ATOM     27  C1  UNL     1     146.272 157.221 171.753  0.00  0.00    +0.000 C 
BRANCH  27  28
ATOM     28  N1  UNL     1     147.714 157.264 171.871  0.00  0.00    +0.000 NA
ATOM     29  H1  UNL     1     148.084 156.374 172.255  0.00  0.00    +0.000 HD
ATOM     30  H2  UNL     1     147.955 158.016 172.555  0.00  0.00    +0.000 HD
ENDBRANCH  27  28
ENDBRANCH  16  27
ENDBRANCH  15  18
ENDBRANCH   1  15
BRANCH   5  31
ATOM     31  O3  UNL     1     146.884 161.483 167.182  0.00  0.00    +0.000 OA
BRANCH  31  32
ATOM     32  C9  UNL     1     147.151 162.844 167.274  0.00  0.00    +0.000 C 
ATOM     33  O4  UNL     1     145.975 163.539 167.412  0.00  0.00    +0.000 OA
ATOM     34  C10 UNL     1     146.196 164.882 167.577  0.00  0.00    +0.000 C 
ATOM     35  C12 UNL     1     146.799 165.146 168.943  0.00  0.00    +0.000 C 
ATOM     36  C13 UNL     1     147.469 163.937 169.517  0.00  0.00    +0.000 C 
ATOM     37  C14 UNL     1     148.055 163.038 168.470  0.00  0.00    +0.000 C 
BRANCH  36  38
ATOM     38  N4  UNL     1     148.555 164.405 170.377  0.00  0.00    +0.000 NA
ATOM     39  H25 UNL     1     148.994 163.594 170.850  0.00  0.00    +0.000 HD
ATOM     40  H26 UNL     1     149.280 164.915 169.809  0.00  0.00    +0.000 HD
ENDBRANCH  36  38
BRANCH  35  41
ATOM     41  O6  UNL     1     145.790 165.593 169.783  0.00  0.00    +0.000 OA
ATOM     42  H23 UNL     1     145.008 165.938 169.286  0.00  0.00    +0.000 HD
ENDBRANCH  35  41
BRANCH  37  43
ATOM     43  O7  UNL     1     148.338 161.811 169.113  0.00  0.00    +0.000 OA
ATOM     44  H28 UNL     1     148.430 161.083 168.458  0.00  0.00    +0.000 HD
ENDBRANCH  37  43
BRANCH  34  45
ATOM     45  C11 UNL     1     147.132 165.492 166.558  0.00  0.00    +0.000 C 
BRANCH  45  46
ATOM     46  O5  UNL     1     146.380 165.624 165.367  0.00  0.00    +0.000 OA
ATOM     47  H21 UNL     1     145.501 166.026 165.540  0.00  0.00    +0.000 HD
ENDBRANCH  45  46
ENDBRANCH  34  45
ENDBRANCH  31  32
ENDBRANCH   5  31
TORSDOF 16
ENDMDL
MODEL 3
REMARK VINA RESULT:      -5.8      3.230      6.865
REMARK  Name = ./3D_structures\o40_MMV002459_3D.pdb
REMARK  16 active torsions:
REMARK  status: ('A' for Active; 'I' for Inactive)
REMARK    1  A    between atoms: N1_1  and  C1_2
REMARK    2  A    between atoms: C1_2  and  C2_3
REMARK    3  A    between atoms: C3_5  and  O2_6
REMARK    4  A    between atoms: O2_6  and  C4_7
REMARK    5  A    between atoms: C5_8  and  N2_9
REMARK    6  A    between atoms: C7_11  and  N3_12
REMARK    7  A    between atoms: C8_13  and  O3_14
REMARK    8  A    between atoms: O3_14  and  C9_15
REMARK    9  A    between atoms: C10_17  and  C11_18
REMARK   10  A    between atoms: C11_18  and  O5_19
REMARK   11  A    between atoms: C12_20  and  O6_21
REMARK   12  A    between atoms: C13_22  and  N4_23
REMARK   13  A    between atoms: C14_24  and  O7_25
REMARK   14  A    between atoms: C15_26  and  O8_27
REMARK   15  A    between atoms: C16_28  and  N5_29
REMARK   16  A    between atoms: C18_31  and  O9_32
REMARK                            x       y       z     vdW  Elec       q    Type
REMARK                         _______ _______ _______ _____ _____    ______ ____
ROOT
ATOM      1  C4  UNL     1     144.018 163.040 165.969  0.00  0.00    +0.000 C 
ATOM      2  C5  UNL     1     143.912 164.333 165.148  0.00  0.00    +0.000 C 
ATOM      3  C6  UNL     1     145.360 164.750 164.911  0.00  0.00    +0.000 C 
ATOM      4  C7  UNL     1     146.004 165.082 166.204  0.00  0.00    +0.000 C 
ATOM      5  C8  UNL     1     145.293 164.650 167.424  0.00  0.00    +0.000 C 
ATOM      6  C15 UNL     1     144.554 163.352 167.319  0.00  0.00    +0.000 C 
ENDROOT
BRANCH   2   7
ATOM      7  N2  UNL     1     143.154 165.340 165.819  0.00  0.00    +0.000 NA
ATOM      8  H9  UNL     1     142.299 165.600 165.313  0.00  0.00    +0.000 HD
ATOM      9  H10 UNL     1     143.764 166.211 165.881  0.00  0.00    +0.000 HD
ENDBRANCH   2   7
BRANCH   4  10
ATOM     10  N3  UNL     1     146.169 166.538 166.257  0.00  0.00    +0.000 NA
ATOM     11  H14 UNL     1     146.302 166.933 165.317  0.00  0.00    +0.000 HD
ATOM     12  H15 UNL     1     145.456 167.000 166.834  0.00  0.00    +0.000 HD
ENDBRANCH   4  10
BRANCH   6  13
ATOM     13  O8  UNL     1     143.517 163.371 168.251  0.00  0.00    +0.000 OA
ATOM     14  H30 UNL     1     142.759 162.786 167.997  0.00  0.00    +0.000 HD
ENDBRANCH   6  13
BRANCH   1  15
ATOM     15  O2  UNL     1     144.972 162.260 165.299  0.00  0.00    +0.000 OA
BRANCH  15  18
ATOM     16  C2  UNL     1     144.434 160.491 162.330  0.00  0.00    +0.000 C 
ATOM     17  O1  UNL     1     144.952 161.366 163.249  0.00  0.00    +0.000 OA
ATOM     18  C3  UNL     1     144.396 161.281 164.510  0.00  0.00    +0.000 C 
ATOM     19  C16 UNL     1     144.779 159.941 165.102  0.00  0.00    +0.000 C 
ATOM     20  C17 UNL     1     145.212 158.950 164.045  0.00  0.00    +0.000 C 
ATOM     21  C18 UNL     1     144.393 159.060 162.801  0.00  0.00    +0.000 C 
BRANCH  19  22
ATOM     22  N5  UNL     1     145.895 160.093 166.018  0.00  0.00    +0.000 NA
ATOM     23  H32 UNL     1     145.612 160.347 166.971  0.00  0.00    +0.000 HD
ATOM     24  H33 UNL     1     146.642 160.706 165.623  0.00  0.00    +0.000 HD
ENDBRANCH  19  22
BRANCH  21  25
ATOM     25  O9  UNL     1     144.896 158.193 161.846  0.00  0.00    +0.000 OA
ATOM     26  H37 UNL     1     145.146 158.682 161.025  0.00  0.00    +0.000 HD
ENDBRANCH  21  25
BRANCH  16  27
ATOM     27  C1  UNL     1     143.037 160.863 161.885  0.00  0.00    +0.000 C 
BRANCH  27  28
ATOM     28  N1  UNL     1     142.624 160.054 160.757  0.00  0.00    +0.000 NA
ATOM     29  H1  UNL     1     143.445 159.666 160.257  0.00  0.00    +0.000 HD
ATOM     30  H2  UNL     1     142.122 160.677 160.086  0.00  0.00    +0.000 HD
ENDBRANCH  27  28
ENDBRANCH  16  27
ENDBRANCH  15  18
ENDBRANCH   1  15
BRANCH   5  31
ATOM     31  O3  UNL     1     146.226 164.518 168.454  0.00  0.00    +0.000 OA
BRANCH  31  32
ATOM     32  C9  UNL     1     147.526 164.350 167.990  0.00  0.00    +0.000 C 
ATOM     33  O4  UNL     1     148.291 165.431 168.349  0.00  0.00    +0.000 OA
ATOM     34  C10 UNL     1     149.600 165.275 167.972  0.00  0.00    +0.000 C 
ATOM     35  C12 UNL     1     150.263 164.211 168.823  0.00  0.00    +0.000 C 
ATOM     36  C13 UNL     1     149.274 163.272 169.442  0.00  0.00    +0.000 C 
ATOM     37  C14 UNL     1     148.050 163.070 168.600  0.00  0.00    +0.000 C 
BRANCH  36  38
ATOM     38  N4  UNL     1     149.937 161.980 169.603  0.00  0.00    +0.000 NA
ATOM     39  H25 UNL     1     150.010 161.751 170.611  0.00  0.00    +0.000 HD
ATOM     40  H26 UNL     1     149.394 161.224 169.110  0.00  0.00    +0.000 HD
ENDBRANCH  36  38
BRANCH  35  41
ATOM     41  O6  UNL     1     151.016 164.844 169.801  0.00  0.00    +0.000 OA
ATOM     42  H23 UNL     1     151.928 165.066 169.492  0.00  0.00    +0.000 HD
ENDBRANCH  35  41
BRANCH  37  43
ATOM     43  O7  UNL     1     147.089 162.459 169.436  0.00  0.00    +0.000 OA
ATOM     44  H28 UNL     1     146.593 163.132 169.954  0.00  0.00    +0.000 HD
ENDBRANCH  37  43
BRANCH  34  45
ATOM     45  C11 UNL     1     149.789 164.865 166.529  0.00  0.00    +0.000 C 
BRANCH  45  46
ATOM     46  O5  UNL     1     149.405 165.982 165.751  0.00  0.00    +0.000 OA
ATOM     47  H21 UNL     1     149.264 166.777 166.310  0.00  0.00    +0.000 HD
ENDBRANCH  45  46
ENDBRANCH  34  45
ENDBRANCH  31  32
ENDBRANCH   5  31
TORSDOF 16
ENDMDL
MODEL 4
REMARK VINA RESULT:      -5.6      1.906      6.902
REMARK  Name = ./3D_structures\o40_MMV002459_3D.pdb
REMARK  16 active torsions:
REMARK  status: ('A' for Active; 'I' for Inactive)
REMARK    1  A    between atoms: N1_1  and  C1_2
REMARK    2  A    between atoms: C1_2  and  C2_3
REMARK    3  A    between atoms: C3_5  and  O2_6
REMARK    4  A    between atoms: O2_6  and  C4_7
REMARK    5  A    between atoms: C5_8  and  N2_9
REMARK    6  A    between atoms: C7_11  and  N3_12
REMARK    7  A    between atoms: C8_13  and  O3_14
REMARK    8  A    between atoms: O3_14  and  C9_15
REMARK    9  A    between atoms: C10_17  and  C11_18
REMARK   10  A    between atoms: C11_18  and  O5_19
REMARK   11  A    between atoms: C12_20  and  O6_21
REMARK   12  A    between atoms: C13_22  and  N4_23
REMARK   13  A    between atoms: C14_24  and  O7_25
REMARK   14  A    between atoms: C15_26  and  O8_27
REMARK   15  A    between atoms: C16_28  and  N5_29
REMARK   16  A    between atoms: C18_31  and  O9_32
REMARK                            x       y       z     vdW  Elec       q    Type
REMARK                         _______ _______ _______ _____ _____    ______ ____
ROOT
ATOM      1  C4  UNL     1     148.771 164.697 169.542  0.00  0.00    +0.000 C 
ATOM      2  C5  UNL     1     149.329 165.762 170.497  0.00  0.00    +0.000 C 
ATOM      3  C6  UNL     1     150.360 166.515 169.662  0.00  0.00    +0.000 C 
ATOM      4  C7  UNL     1     151.470 165.604 169.296  0.00  0.00    +0.000 C 
ATOM      5  C8  UNL     1     151.229 164.160 169.492  0.00  0.00    +0.000 C 
ATOM      6  C15 UNL     1     149.827 163.696 169.242  0.00  0.00    +0.000 C 
ENDROOT
BRANCH   2   7
ATOM      7  N2  UNL     1     149.892 165.190 171.678  0.00  0.00    +0.000 NA
ATOM      8  H9  UNL     1     149.232 165.169 172.464  0.00  0.00    +0.000 HD
ATOM      9  H10 UNL     1     150.714 165.800 171.968  0.00  0.00    +0.000 HD
ENDBRANCH   2   7
BRANCH   4  10
ATOM     10  N3  UNL     1     152.641 165.989 170.090  0.00  0.00    +0.000 NA
ATOM     11  H14 UNL     1     153.171 166.741 169.632  0.00  0.00    +0.000 HD
ATOM     12  H15 UNL     1     152.419 166.144 171.080  0.00  0.00    +0.000 HD
ENDBRANCH   4  10
BRANCH   6  13
ATOM     13  O8  UNL     1     149.617 162.541 169.994  0.00  0.00    +0.000 OA
ATOM     14  H30 UNL     1     150.169 161.777 169.690  0.00  0.00    +0.000 HD
ENDBRANCH   6  13
BRANCH   1  15
ATOM     15  O2  UNL     1     148.484 165.386 168.354  0.00  0.00    +0.000 OA
BRANCH  15  18
ATOM     16  C2  UNL     1     145.091 164.710 167.847  0.00  0.00    +0.000 C 
ATOM     17  O1  UNL     1     146.254 165.216 168.364  0.00  0.00    +0.000 OA
ATOM     18  C3  UNL     1     147.399 164.855 167.682  0.00  0.00    +0.000 C 
ATOM     19  C16 UNL     1     147.355 165.502 166.314  0.00  0.00    +0.000 C 
ATOM     20  C17 UNL     1     145.956 165.925 165.925  0.00  0.00    +0.000 C 
ATOM     21  C18 UNL     1     144.926 164.937 166.366  0.00  0.00    +0.000 C 
BRANCH  19  22
ATOM     22  N5  UNL     1     148.177 166.698 166.293  0.00  0.00    +0.000 NA
ATOM     23  H32 UNL     1     147.649 167.562 166.461  0.00  0.00    +0.000 HD
ATOM     24  H33 UNL     1     148.790 166.736 165.449  0.00  0.00    +0.000 HD
ENDBRANCH  19  22
BRANCH  21  25
ATOM     25  O9  UNL     1     143.667 165.425 166.060  0.00  0.00    +0.000 OA
ATOM     26  H37 UNL     1     143.305 164.982 165.255  0.00  0.00    +0.000 HD
ENDBRANCH  21  25
BRANCH  16  27
ATOM     27  C1  UNL     1     144.932 163.226 168.099  0.00  0.00    +0.000 C 
BRANCH  27  28
ATOM     28  N1  UNL     1     143.553 162.820 167.925  0.00  0.00    +0.000 NA
ATOM     29  H1  UNL     1     142.949 163.222 168.667  0.00  0.00    +0.000 HD
ATOM     30  H2  UNL     1     143.512 161.781 168.026  0.00  0.00    +0.000 HD
ENDBRANCH  27  28
ENDBRANCH  16  27
ENDBRANCH  15  18
ENDBRANCH   1  15
BRANCH   5  31
ATOM     31  O3  UNL     1     152.064 163.453 168.626  0.00  0.00    +0.000 OA
BRANCH  31  32
ATOM     32  C9  UNL     1     151.744 163.644 167.286  0.00  0.00    +0.000 C 
ATOM     33  O4  UNL     1     152.746 164.346 166.665  0.00  0.00    +0.000 OA
ATOM     34  C10 UNL     1     152.504 164.498 165.324  0.00  0.00    +0.000 C 
ATOM     35  C12 UNL     1     152.658 163.168 164.614  0.00  0.00    +0.000 C 
ATOM     36  C13 UNL     1     152.504 162.002 165.540  0.00  0.00    +0.000 C 
ATOM     37  C14 UNL     1     151.562 162.274 166.674  0.00  0.00    +0.000 C 
BRANCH  36  38
ATOM     38  N4  UNL     1     151.967 160.889 164.758  0.00  0.00    +0.000 NA
ATOM     39  H25 UNL     1     151.848 160.062 165.371  0.00  0.00    +0.000 HD
ATOM     40  H26 UNL     1     151.038 161.150 164.336  0.00  0.00    +0.000 HD
ENDBRANCH  36  38
BRANCH  35  41
ATOM     41  O6  UNL     1     153.902 163.145 164.001  0.00  0.00    +0.000 OA
ATOM     42  H23 UNL     1     153.936 163.714 163.192  0.00  0.00    +0.000 HD
ENDBRANCH  35  41
BRANCH  37  43
ATOM     43  O7  UNL     1     151.774 161.248 167.622  0.00  0.00    +0.000 OA
ATOM     44  H28 UNL     1     150.930 160.987 168.055  0.00  0.00    +0.000 HD
ENDBRANCH  37  43
BRANCH  34  45
ATOM     45  C11 UNL     1     151.122 165.015 164.993  0.00  0.00    +0.000 C 
BRANCH  45  46
ATOM     46  O5  UNL     1     151.107 166.372 165.393  0.00  0.00    +0.000 OA
ATOM     47  H21 UNL     1     152.003 166.682 165.648  0.00  0.00    +0.000 HD
ENDBRANCH  45  46
ENDBRANCH  34  45
ENDBRANCH  31  32
ENDBRANCH   5  31
TORSDOF 16
ENDMDL
MODEL 5
REMARK VINA RESULT:      -5.5      3.355      5.128
REMARK  Name = ./3D_structures\o40_MMV002459_3D.pdb
REMARK  16 active torsions:
REMARK  status: ('A' for Active; 'I' for Inactive)
REMARK    1  A    between atoms: N1_1  and  C1_2
REMARK    2  A    between atoms: C1_2  and  C2_3
REMARK    3  A    between atoms: C3_5  and  O2_6
REMARK    4  A    between atoms: O2_6  and  C4_7
REMARK    5  A    between atoms: C5_8  and  N2_9
REMARK    6  A    between atoms: C7_11  and  N3_12
REMARK    7  A    between atoms: C8_13  and  O3_14
REMARK    8  A    between atoms: O3_14  and  C9_15
REMARK    9  A    between atoms: C10_17  and  C11_18
REMARK   10  A    between atoms: C11_18  and  O5_19
REMARK   11  A    between atoms: C12_20  and  O6_21
REMARK   12  A    between atoms: C13_22  and  N4_23
REMARK   13  A    between atoms: C14_24  and  O7_25
REMARK   14  A    between atoms: C15_26  and  O8_27
REMARK   15  A    between atoms: C16_28  and  N5_29
REMARK   16  A    between atoms: C18_31  and  O9_32
REMARK                            x       y       z     vdW  Elec       q    Type
REMARK                         _______ _______ _______ _____ _____    ______ ____
ROOT
ATOM      1  C4  UNL     1     150.911 162.842 169.348  0.00  0.00    +0.000 C 
ATOM      2  C5  UNL     1     151.652 163.468 168.158  0.00  0.00    +0.000 C 
ATOM      3  C6  UNL     1     151.648 164.964 168.456  0.00  0.00    +0.000 C 
ATOM      4  C7  UNL     1     150.257 165.473 168.446  0.00  0.00    +0.000 C 
ATOM      5  C8  UNL     1     149.184 164.460 168.493  0.00  0.00    +0.000 C 
ATOM      6  C15 UNL     1     149.480 163.238 169.307  0.00  0.00    +0.000 C 
ENDROOT
BRANCH   2   7
ATOM      7  N2  UNL     1     151.033 163.156 166.910  0.00  0.00    +0.000 NA
ATOM      8  H9  UNL     1     150.649 162.204 166.882  0.00  0.00    +0.000 HD
ATOM      9  H10 UNL     1     151.782 163.218 166.157  0.00  0.00    +0.000 HD
ENDBRANCH   2   7
BRANCH   4  10
ATOM     10  N3  UNL     1     150.084 166.272 167.228  0.00  0.00    +0.000 NA
ATOM     11  H14 UNL     1     150.876 166.913 167.088  0.00  0.00    +0.000 HD
ATOM     12  H15 UNL     1     149.824 165.706 166.413  0.00  0.00    +0.000 HD
ENDBRANCH   4  10
BRANCH   6  13
ATOM     13  O8  UNL     1     148.709 162.190 168.806  0.00  0.00    +0.000 OA
ATOM     14  H30 UNL     1     147.956 161.946 169.401  0.00  0.00    +0.000 HD
ENDBRANCH   6  13
BRANCH   1  15
ATOM     15  O2  UNL     1     151.486 163.429 170.485  0.00  0.00    +0.000 OA
BRANCH  15  18
ATOM     16  C2  UNL     1     152.702 160.536 172.029  0.00  0.00    +0.000 C 
ATOM     17  O1  UNL     1     152.501 161.538 171.117  0.00  0.00    +0.000 OA
ATOM     18  C3  UNL     1     151.635 162.532 171.527  0.00  0.00    +0.000 C 
ATOM     19  C16 UNL     1     152.284 163.277 172.674  0.00  0.00    +0.000 C 
ATOM     20  C17 UNL     1     153.394 162.478 173.321  0.00  0.00    +0.000 C 
ATOM     21  C18 UNL     1     153.063 161.024 173.408  0.00  0.00    +0.000 C 
BRANCH  19  22
ATOM     22  N5  UNL     1     152.878 164.515 172.202  0.00  0.00    +0.000 NA
ATOM     23  H32 UNL     1     153.518 164.387 171.410  0.00  0.00    +0.000 HD
ATOM     24  H33 UNL     1     153.281 165.077 172.984  0.00  0.00    +0.000 HD
ENDBRANCH  19  22
BRANCH  21  25
ATOM     25  O9  UNL     1     154.152 160.340 173.924  0.00  0.00    +0.000 OA
ATOM     26  H37 UNL     1     153.979 160.059 174.855  0.00  0.00    +0.000 HD
ENDBRANCH  21  25
BRANCH  16  27
ATOM     27  C1  UNL     1     151.507 159.620 172.170  0.00  0.00    +0.000 C 
BRANCH  27  28
ATOM     28  N1  UNL     1     151.127 159.481 173.561  0.00  0.00    +0.000 NA
ATOM     29  H1  UNL     1     150.629 158.586 173.724  0.00  0.00    +0.000 HD
ATOM     30  H2  UNL     1     150.458 160.250 173.786  0.00  0.00    +0.000 HD
ENDBRANCH  27  28
ENDBRANCH  16  27
ENDBRANCH  15  18
ENDBRANCH   1  15
BRANCH   5  31
ATOM     31  O3  UNL     1     148.040 165.053 169.030  0.00  0.00    +0.000 OA
BRANCH  31  32
ATOM     32  C9  UNL     1     146.999 165.151 168.113  0.00  0.00    +0.000 C 
ATOM     33  O4  UNL     1     147.393 164.631 166.906  0.00  0.00    +0.000 OA
ATOM     34  C10 UNL     1     146.373 164.644 165.990  0.00  0.00    +0.000 C 
ATOM     35  C12 UNL     1     145.322 163.620 166.368  0.00  0.00    +0.000 C 
ATOM     36  C13 UNL     1     145.368 163.260 167.820  0.00  0.00    +0.000 C 
ATOM     37  C14 UNL     1     145.827 164.391 168.691  0.00  0.00    +0.000 C 
BRANCH  36  38
ATOM     38  N4  UNL     1     144.011 162.895 168.224  0.00  0.00    +0.000 NA
ATOM     39  H25 UNL     1     144.041 162.027 168.790  0.00  0.00    +0.000 HD
ATOM     40  H26 UNL     1     143.575 163.669 168.791  0.00  0.00    +0.000 HD
ENDBRANCH  36  38
BRANCH  35  41
ATOM     41  O6  UNL     1     145.510 162.495 165.578  0.00  0.00    +0.000 OA
ATOM     42  H23 UNL     1     144.732 161.884 165.598  0.00  0.00    +0.000 HD
ENDBRANCH  35  41
BRANCH  37  43
ATOM     43  O7  UNL     1     146.143 163.823 169.946  0.00  0.00    +0.000 OA
ATOM     44  H28 UNL     1     145.835 162.890 169.999  0.00  0.00    +0.000 HD
ENDBRANCH  37  43
BRANCH  34  45
ATOM     45  C11 UNL     1     145.665 165.974 165.863  0.00  0.00    +0.000 C 
BRANCH  45  46
ATOM     46  O5  UNL     1     146.577 166.843 165.219  0.00  0.00    +0.000 OA
ATOM     47  H21 UNL     1     146.887 166.470 164.366  0.00  0.00    +0.000 HD
ENDBRANCH  45  46
ENDBRANCH  34  45
ENDBRANCH  31  32
ENDBRANCH   5  31
TORSDOF 16
ENDMDL
MODEL 6
REMARK VINA RESULT:      -5.5      1.481      2.392
REMARK  Name = ./3D_structures\o40_MMV002459_3D.pdb
REMARK  16 active torsions:
REMARK  status: ('A' for Active; 'I' for Inactive)
REMARK    1  A    between atoms: N1_1  and  C1_2
REMARK    2  A    between atoms: C1_2  and  C2_3
REMARK    3  A    between atoms: C3_5  and  O2_6
REMARK    4  A    between atoms: O2_6  and  C4_7
REMARK    5  A    between atoms: C5_8  and  N2_9
REMARK    6  A    between atoms: C7_11  and  N3_12
REMARK    7  A    between atoms: C8_13  and  O3_14
REMARK    8  A    between atoms: O3_14  and  C9_15
REMARK    9  A    between atoms: C10_17  and  C11_18
REMARK   10  A    between atoms: C11_18  and  O5_19
REMARK   11  A    between atoms: C12_20  and  O6_21
REMARK   12  A    between atoms: C13_22  and  N4_23
REMARK   13  A    between atoms: C14_24  and  O7_25
REMARK   14  A    between atoms: C15_26  and  O8_27
REMARK   15  A    between atoms: C16_28  and  N5_29
REMARK   16  A    between atoms: C18_31  and  O9_32
REMARK                            x       y       z     vdW  Elec       q    Type
REMARK                         _______ _______ _______ _____ _____    ______ ____
ROOT
ATOM      1  C4  UNL     1     150.768 164.075 167.937  0.00  0.00    +0.000 C 
ATOM      2  C5  UNL     1     150.747 165.006 169.157  0.00  0.00    +0.000 C 
ATOM      3  C6  UNL     1     149.979 164.223 170.217  0.00  0.00    +0.000 C 
ATOM      4  C7  UNL     1     148.579 164.021 169.774  0.00  0.00    +0.000 C 
ATOM      5  C8  UNL     1     148.294 164.287 168.350  0.00  0.00    +0.000 C 
ATOM      6  C15 UNL     1     149.392 163.940 167.392  0.00  0.00    +0.000 C 
ENDROOT
BRANCH   2   7
ATOM      7  N2  UNL     1     150.147 166.268 168.866  0.00  0.00    +0.000 NA
ATOM      8  H9  UNL     1     149.135 166.279 169.043  0.00  0.00    +0.000 HD
ATOM      9  H10 UNL     1     150.291 166.459 167.829  0.00  0.00    +0.000 HD
ENDBRANCH   2   7
BRANCH   4  10
ATOM     10  N3  UNL     1     147.725 164.893 170.586  0.00  0.00    +0.000 NA
ATOM     11  H14 UNL     1     146.938 165.262 170.035  0.00  0.00    +0.000 HD
ATOM     12  H15 UNL     1     147.474 164.477 171.490  0.00  0.00    +0.000 HD
ENDBRANCH   4  10
BRANCH   6  13
ATOM     13  O8  UNL     1     149.246 164.742 166.261  0.00  0.00    +0.000 OA
ATOM     14  H30 UNL     1     149.455 165.694 166.434  0.00  0.00    +0.000 HD
ENDBRANCH   6  13
BRANCH   1  15
ATOM     15  O2  UNL     1     151.155 162.824 168.439  0.00  0.00    +0.000 OA
BRANCH  15  18
ATOM     16  C2  UNL     1     152.997 161.763 165.662  0.00  0.00    +0.000 C 
ATOM     17  O1  UNL     1     152.563 162.501 166.732  0.00  0.00    +0.000 OA
ATOM     18  C3  UNL     1     151.518 161.940 167.439  0.00  0.00    +0.000 C 
ATOM     19  C16 UNL     1     152.026 160.682 168.111  0.00  0.00    +0.000 C 
ATOM     20  C17 UNL     1     153.297 160.166 167.473  0.00  0.00    +0.000 C 
ATOM     21  C18 UNL     1     153.284 160.319 165.988  0.00  0.00    +0.000 C 
BRANCH  19  22
ATOM     22  N5  UNL     1     152.332 160.943 169.506  0.00  0.00    +0.000 NA
ATOM     23  H32 UNL     1     152.007 160.205 170.142  0.00  0.00    +0.000 HD
ATOM     24  H33 UNL     1     152.045 161.904 169.795  0.00  0.00    +0.000 HD
ENDBRANCH  19  22
BRANCH  21  25
ATOM     25  O9  UNL     1     154.506 159.913 165.477  0.00  0.00    +0.000 OA
ATOM     26  H37 UNL     1     155.219 160.017 166.152  0.00  0.00    +0.000 HD
ENDBRANCH  21  25
BRANCH  16  27
ATOM     27  C1  UNL     1     152.026 161.781 164.501  0.00  0.00    +0.000 C 
BRANCH  27  28
ATOM     28  N1  UNL     1     152.232 162.954 163.678  0.00  0.00    +0.000 NA
ATOM     29  H1  UNL     1     152.925 162.767 162.929  0.00  0.00    +0.000 HD
ATOM     30  H2  UNL     1     152.632 163.704 164.285  0.00  0.00    +0.000 HD
ENDBRANCH  27  28
ENDBRANCH  16  27
ENDBRANCH  15  18
ENDBRANCH   1  15
BRANCH   5  31
ATOM     31  O3  UNL     1     147.168 163.549 167.980  0.00  0.00    +0.000 OA
BRANCH  31  32
ATOM     32  C9  UNL     1     146.203 164.318 167.339  0.00  0.00    +0.000 C 
ATOM     33  O4  UNL     1     146.273 164.115 165.983  0.00  0.00    +0.000 OA
ATOM     34  C10 UNL     1     145.292 164.802 165.316  0.00  0.00    +0.000 C 
ATOM     35  C12 UNL     1     143.940 164.174 165.589  0.00  0.00    +0.000 C 
ATOM     36  C13 UNL     1     143.925 163.369 166.851  0.00  0.00    +0.000 C 
ATOM     37  C14 UNL     1     144.861 163.899 167.896  0.00  0.00    +0.000 C 
BRANCH  36  38
ATOM     38  N4  UNL     1     142.567 163.419 167.388  0.00  0.00    +0.000 NA
ATOM     39  H25 UNL     1     142.445 164.289 167.938  0.00  0.00    +0.000 HD
ATOM     40  H26 UNL     1     141.861 163.397 166.606  0.00  0.00    +0.000 HD
ENDBRANCH  36  38
BRANCH  35  41
ATOM     41  O6  UNL     1     143.600 163.384 164.501  0.00  0.00    +0.000 OA
ATOM     42  H23 UNL     1     144.226 163.495 163.743  0.00  0.00    +0.000 HD
ENDBRANCH  35  41
BRANCH  37  43
ATOM     43  O7  UNL     1     144.995 162.879 168.864  0.00  0.00    +0.000 OA
ATOM     44  H28 UNL     1     144.182 162.804 169.413  0.00  0.00    +0.000 HD
ENDBRANCH  37  43
BRANCH  34  45
ATOM     45  C11 UNL     1     145.183 166.262 165.695  0.00  0.00    +0.000 C 
BRANCH  45  46
ATOM     46  O5  UNL     1     146.335 166.890 165.165  0.00  0.00    +0.000 OA
ATOM     47  H21 UNL     1     146.958 167.156 165.876  0.00  0.00    +0.000 HD
ENDBRANCH  45  46
ENDBRANCH  34  45
ENDBRANCH  31  32
ENDBRANCH   5  31
TORSDOF 16
ENDMDL
MODEL 7
REMARK VINA RESULT:      -5.4      3.033      4.549
REMARK  Name = ./3D_structures\o40_MMV002459_3D.pdb
REMARK  16 active torsions:
REMARK  status: ('A' for Active; 'I' for Inactive)
REMARK    1  A    between atoms: N1_1  and  C1_2
REMARK    2  A    between atoms: C1_2  and  C2_3
REMARK    3  A    between atoms: C3_5  and  O2_6
REMARK    4  A    between atoms: O2_6  and  C4_7
REMARK    5  A    between atoms: C5_8  and  N2_9
REMARK    6  A    between atoms: C7_11  and  N3_12
REMARK    7  A    between atoms: C8_13  and  O3_14
REMARK    8  A    between atoms: O3_14  and  C9_15
REMARK    9  A    between atoms: C10_17  and  C11_18
REMARK   10  A    between atoms: C11_18  and  O5_19
REMARK   11  A    between atoms: C12_20  and  O6_21
REMARK   12  A    between atoms: C13_22  and  N4_23
REMARK   13  A    between atoms: C14_24  and  O7_25
REMARK   14  A    between atoms: C15_26  and  O8_27
REMARK   15  A    between atoms: C16_28  and  N5_29
REMARK   16  A    between atoms: C18_31  and  O9_32
REMARK                            x       y       z     vdW  Elec       q    Type
REMARK                         _______ _______ _______ _____ _____    ______ ____
ROOT
ATOM      1  C4  UNL     1     151.497 161.710 167.740  0.00  0.00    +0.000 C 
ATOM      2  C5  UNL     1     152.212 162.756 166.874  0.00  0.00    +0.000 C 
ATOM      3  C6  UNL     1     152.389 163.956 167.799  0.00  0.00    +0.000 C 
ATOM      4  C7  UNL     1     151.063 164.501 168.172  0.00  0.00    +0.000 C 
ATOM      5  C8  UNL     1     149.894 163.645 167.887  0.00  0.00    +0.000 C 
ATOM      6  C15 UNL     1     150.116 162.172 168.039  0.00  0.00    +0.000 C 
ENDROOT
BRANCH   2   7
ATOM      7  N2  UNL     1     151.474 163.079 165.694  0.00  0.00    +0.000 NA
ATOM      8  H9  UNL     1     151.334 164.089 165.575  0.00  0.00    +0.000 HD
ATOM      9  H10 UNL     1     150.513 162.632 165.786  0.00  0.00    +0.000 HD
ENDBRANCH   2   7
BRANCH   4  10
ATOM     10  N3  UNL     1     150.888 165.772 167.460  0.00  0.00    +0.000 NA
ATOM     11  H14 UNL     1     150.161 165.696 166.737  0.00  0.00    +0.000 HD
ATOM     12  H15 UNL     1     150.800 166.575 168.093  0.00  0.00    +0.000 HD
ENDBRANCH   4  10
BRANCH   6  13
ATOM     13  O8  UNL     1     149.204 161.512 167.217  0.00  0.00    +0.000 OA
ATOM     14  H30 UNL     1     148.277 161.844 167.325  0.00  0.00    +0.000 HD
ENDBRANCH   6  13
BRANCH   1  15
ATOM     15  O2  UNL     1     152.211 161.686 168.947  0.00  0.00    +0.000 OA
BRANCH  15  18
ATOM     16  C2  UNL     1     154.750 159.283 168.844  0.00  0.00    +0.000 C 
ATOM     17  O1  UNL     1     154.072 160.467 168.717  0.00  0.00    +0.000 OA
ATOM     18  C3  UNL     1     152.779 160.451 169.202  0.00  0.00    +0.000 C 
ATOM     19  C16 UNL     1     152.843 160.286 170.706  0.00  0.00    +0.000 C 
ATOM     20  C17 UNL     1     154.174 159.734 171.165  0.00  0.00    +0.000 C 
ATOM     21  C18 UNL     1     154.705 158.696 170.232  0.00  0.00    +0.000 C 
BRANCH  19  22
ATOM     22  N5  UNL     1     152.670 161.569 171.363  0.00  0.00    +0.000 NA
ATOM     23  H32 UNL     1     153.555 162.021 171.620  0.00  0.00    +0.000 HD
ATOM     24  H33 UNL     1     151.981 161.516 172.145  0.00  0.00    +0.000 HD
ENDBRANCH  19  22
BRANCH  21  25
ATOM     25  O9  UNL     1     155.961 158.298 170.660  0.00  0.00    +0.000 OA
ATOM     26  H37 UNL     1     156.083 157.326 170.534  0.00  0.00    +0.000 HD
ENDBRANCH  21  25
BRANCH  16  27
ATOM     27  C1  UNL     1     154.262 158.219 167.885  0.00  0.00    +0.000 C 
BRANCH  27  28
ATOM     28  N1  UNL     1     154.184 156.931 168.543  0.00  0.00    +0.000 NA
ATOM     29  H1  UNL     1     154.951 156.817 169.232  0.00  0.00    +0.000 HD
ATOM     30  H2  UNL     1     154.315 156.194 167.814  0.00  0.00    +0.000 HD
ENDBRANCH  27  28
ENDBRANCH  16  27
ENDBRANCH  15  18
ENDBRANCH   1  15
BRANCH   5  31
ATOM     31  O3  UNL     1     148.862 164.004 168.755  0.00  0.00    +0.000 OA
BRANCH  31  32
ATOM     32  C9  UNL     1     147.745 164.502 168.093  0.00  0.00    +0.000 C 
ATOM     33  O4  UNL     1     147.852 164.250 166.748  0.00  0.00    +0.000 OA
ATOM     34  C10 UNL     1     146.738 164.663 166.064  0.00  0.00    +0.000 C 
ATOM     35  C12 UNL     1     145.563 163.762 166.391  0.00  0.00    +0.000 C 
ATOM     36  C13 UNL     1     145.737 163.041 167.691  0.00  0.00    +0.000 C 
ATOM     37  C14 UNL     1     146.535 163.822 168.693  0.00  0.00    +0.000 C 
BRANCH  36  38
ATOM     38  N4  UNL     1     144.405 162.813 168.247  0.00  0.00    +0.000 NA
ATOM     39  H25 UNL     1     144.397 161.917 168.768  0.00  0.00    +0.000 HD
ATOM     40  H26 UNL     1     144.138 163.598 168.897  0.00  0.00    +0.000 HD
ENDBRANCH  36  38
BRANCH  35  41
ATOM     41  O6  UNL     1     145.405 162.861 165.348  0.00  0.00    +0.000 OA
ATOM     42  H23 UNL     1     144.456 162.648 165.173  0.00  0.00    +0.000 HD
ENDBRANCH  35  41
BRANCH  37  43
ATOM     43  O7  UNL     1     146.901 162.909 169.708  0.00  0.00    +0.000 OA
ATOM     44  H28 UNL     1     146.290 162.974 170.477  0.00  0.00    +0.000 HD
ENDBRANCH  37  43
BRANCH  34  45
ATOM     45  C11 UNL     1     146.305 166.079 166.372  0.00  0.00    +0.000 C 
BRANCH  45  46
ATOM     46  O5  UNL     1     146.614 166.841 165.220  0.00  0.00    +0.000 OA
ATOM     47  H21 UNL     1     145.811 167.259 164.841  0.00  0.00    +0.000 HD
ENDBRANCH  45  46
ENDBRANCH  34  45
ENDBRANCH  31  32
ENDBRANCH   5  31
TORSDOF 16
ENDMDL
MODEL 8
REMARK VINA RESULT:      -5.4     20.198     23.650
REMARK  Name = ./3D_structures\o40_MMV002459_3D.pdb
REMARK  16 active torsions:
REMARK  status: ('A' for Active; 'I' for Inactive)
REMARK    1  A    between atoms: N1_1  and  C1_2
REMARK    2  A    between atoms: C1_2  and  C2_3
REMARK    3  A    between atoms: C3_5  and  O2_6
REMARK    4  A    between atoms: O2_6  and  C4_7
REMARK    5  A    between atoms: C5_8  and  N2_9
REMARK    6  A    between atoms: C7_11  and  N3_12
REMARK    7  A    between atoms: C8_13  and  O3_14
REMARK    8  A    between atoms: O3_14  and  C9_15
REMARK    9  A    between atoms: C10_17  and  C11_18
REMARK   10  A    between atoms: C11_18  and  O5_19
REMARK   11  A    between atoms: C12_20  and  O6_21
REMARK   12  A    between atoms: C13_22  and  N4_23
REMARK   13  A    between atoms: C14_24  and  O7_25
REMARK   14  A    between atoms: C15_26  and  O8_27
REMARK   15  A    between atoms: C16_28  and  N5_29
REMARK   16  A    between atoms: C18_31  and  O9_32
REMARK                            x       y       z     vdW  Elec       q    Type
REMARK                         _______ _______ _______ _____ _____    ______ ____
ROOT
ATOM      1  C4  UNL     1     162.496 143.111 171.463  0.00  0.00    +0.000 C 
ATOM      2  C5  UNL     1     162.077 143.841 172.747  0.00  0.00    +0.000 C 
ATOM      3  C6  UNL     1     161.301 145.058 172.254  0.00  0.00    +0.000 C 
ATOM      4  C7  UNL     1     162.205 145.954 171.496  0.00  0.00    +0.000 C 
ATOM      5  C8  UNL     1     163.505 145.386 171.086  0.00  0.00    +0.000 C 
ATOM      6  C15 UNL     1     163.494 143.932 170.730  0.00  0.00    +0.000 C 
ENDROOT
BRANCH   2   7
ATOM      7  N2  UNL     1     163.196 144.196 173.559  0.00  0.00    +0.000 NA
ATOM      8  H9  UNL     1     162.947 144.833 174.326  0.00  0.00    +0.000 HD
ATOM      9  H10 UNL     1     163.894 144.705 172.937  0.00  0.00    +0.000 HD
ENDBRANCH   2   7
BRANCH   4  10
ATOM     10  N3  UNL     1     162.458 147.137 172.325  0.00  0.00    +0.000 NA
ATOM     11  H14 UNL     1     162.862 146.875 173.234  0.00  0.00    +0.000 HD
ATOM     12  H15 UNL     1     162.953 147.881 171.819  0.00  0.00    +0.000 HD
ENDBRANCH   4  10
BRANCH   6  13
ATOM     13  O8  UNL     1     164.776 143.428 170.944  0.00  0.00    +0.000 OA
ATOM     14  H30 UNL     1     164.777 142.469 171.193  0.00  0.00    +0.000 HD
ENDBRANCH   6  13
BRANCH   1  15
ATOM     15  O2  UNL     1     161.333 143.051 170.681  0.00  0.00    +0.000 OA
BRANCH  15  18
ATOM     16  C2  UNL     1     161.750 141.653 167.503  0.00  0.00    +0.000 C 
ATOM     17  O1  UNL     1     161.454 141.798 168.833  0.00  0.00    +0.000 OA
ATOM     18  C3  UNL     1     161.604 143.079 169.325  0.00  0.00    +0.000 C 
ATOM     19  C16 UNL     1     160.557 143.958 168.674  0.00  0.00    +0.000 C 
ATOM     20  C17 UNL     1     160.007 143.348 167.404  0.00  0.00    +0.000 C 
ATOM     21  C18 UNL     1     161.063 142.654 166.609  0.00  0.00    +0.000 C 
BRANCH  19  22
ATOM     22  N5  UNL     1     159.432 144.153 169.570  0.00  0.00    +0.000 NA
ATOM     23  H32 UNL     1     159.072 143.281 169.973  0.00  0.00    +0.000 HD
ATOM     24  H33 UNL     1     158.694 144.756 169.143  0.00  0.00    +0.000 HD
ENDBRANCH  19  22
BRANCH  21  25
ATOM     25  O9  UNL     1     160.479 142.043 165.511  0.00  0.00    +0.000 OA
ATOM     26  H37 UNL     1     160.636 142.572 164.692  0.00  0.00    +0.000 HD
ENDBRANCH  21  25
BRANCH  16  27
ATOM     27  C1  UNL     1     163.233 141.732 167.218  0.00  0.00    +0.000 C 
BRANCH  27  28
ATOM     28  N1  UNL     1     163.509 142.725 166.200  0.00  0.00    +0.000 NA
ATOM     29  H1  UNL     1     163.132 142.430 165.279  0.00  0.00    +0.000 HD
ATOM     30  H2  UNL     1     164.546 142.797 166.098  0.00  0.00    +0.000 HD
ENDBRANCH  27  28
ENDBRANCH  16  27
ENDBRANCH  15  18
ENDBRANCH   1  15
BRANCH   5  31
ATOM     31  O3  UNL     1     163.961 146.088 169.969  0.00  0.00    +0.000 OA
BRANCH  31  32
ATOM     32  C9  UNL     1     162.980 146.888 169.394  0.00  0.00    +0.000 C 
ATOM     33  O4  UNL     1     163.333 148.209 169.508  0.00  0.00    +0.000 OA
ATOM     34  C10 UNL     1     162.426 149.032 168.891  0.00  0.00    +0.000 C 
ATOM     35  C12 UNL     1     162.523 148.880 167.386  0.00  0.00    +0.000 C 
ATOM     36  C13 UNL     1     163.141 147.578 166.981  0.00  0.00    +0.000 C 
ATOM     37  C14 UNL     1     162.857 146.467 167.947  0.00  0.00    +0.000 C 
BRANCH  36  38
ATOM     38  N4  UNL     1     162.576 147.210 165.684  0.00  0.00    +0.000 NA
ATOM     39  H25 UNL     1     161.572 147.465 165.660  0.00  0.00    +0.000 HD
ATOM     40  H26 UNL     1     163.083 147.707 164.907  0.00  0.00    +0.000 HD
ENDBRANCH  36  38
BRANCH  35  41
ATOM     41  O6  UNL     1     163.258 149.946 166.889  0.00  0.00    +0.000 OA
ATOM     42  H23 UNL     1     163.259 150.723 167.501  0.00  0.00    +0.000 HD
ENDBRANCH  35  41
BRANCH  37  43
ATOM     43  O7  UNL     1     163.756 145.424 167.631  0.00  0.00    +0.000 OA
ATOM     44  H28 UNL     1     163.346 144.782 167.007  0.00  0.00    +0.000 HD
ENDBRANCH  37  43
BRANCH  34  45
ATOM     45  C11 UNL     1     160.985 148.767 169.267  0.00  0.00    +0.000 C 
BRANCH  45  46
ATOM     46  O5  UNL     1     160.832 149.244 170.590  0.00  0.00    +0.000 OA
ATOM     47  H21 UNL     1     160.405 150.128 170.606  0.00  0.00    +0.000 HD
ENDBRANCH  45  46
ENDBRANCH  34  45
ENDBRANCH  31  32
ENDBRANCH   5  31
TORSDOF 16
ENDMDL
MODEL 9
REMARK VINA RESULT:      -5.4      3.865      5.880
REMARK  Name = ./3D_structures\o40_MMV002459_3D.pdb
REMARK  16 active torsions:
REMARK  status: ('A' for Active; 'I' for Inactive)
REMARK    1  A    between atoms: N1_1  and  C1_2
REMARK    2  A    between atoms: C1_2  and  C2_3
REMARK    3  A    between atoms: C3_5  and  O2_6
REMARK    4  A    between atoms: O2_6  and  C4_7
REMARK    5  A    between atoms: C5_8  and  N2_9
REMARK    6  A    between atoms: C7_11  and  N3_12
REMARK    7  A    between atoms: C8_13  and  O3_14
REMARK    8  A    between atoms: O3_14  and  C9_15
REMARK    9  A    between atoms: C10_17  and  C11_18
REMARK   10  A    between atoms: C11_18  and  O5_19
REMARK   11  A    between atoms: C12_20  and  O6_21
REMARK   12  A    between atoms: C13_22  and  N4_23
REMARK   13  A    between atoms: C14_24  and  O7_25
REMARK   14  A    between atoms: C15_26  and  O8_27
REMARK   15  A    between atoms: C16_28  and  N5_29
REMARK   16  A    between atoms: C18_31  and  O9_32
REMARK                            x       y       z     vdW  Elec       q    Type
REMARK                         _______ _______ _______ _____ _____    ______ ____
ROOT
ATOM      1  C4  UNL     1     152.261 161.005 169.364  0.00  0.00    +0.000 C 
ATOM      2  C5  UNL     1     152.676 161.009 167.886  0.00  0.00    +0.000 C 
ATOM      3  C6  UNL     1     153.518 162.272 167.734  0.00  0.00    +0.000 C 
ATOM      4  C7  UNL     1     152.675 163.467 167.975  0.00  0.00    +0.000 C 
ATOM      5  C8  UNL     1     151.364 163.232 168.610  0.00  0.00    +0.000 C 
ATOM      6  C15 UNL     1     151.320 162.126 169.619  0.00  0.00    +0.000 C 
ENDROOT
BRANCH   2   7
ATOM      7  N2  UNL     1     151.551 160.991 167.007  0.00  0.00    +0.000 NA
ATOM      8  H9  UNL     1     150.672 161.230 167.480  0.00  0.00    +0.000 HD
ATOM      9  H10 UNL     1     151.453 159.999 166.635  0.00  0.00    +0.000 HD
ENDBRANCH   2   7
BRANCH   4  10
ATOM     10  N3  UNL     1     152.451 164.122 166.681  0.00  0.00    +0.000 NA
ATOM     11  H14 UNL     1     152.986 163.661 165.933  0.00  0.00    +0.000 HD
ATOM     12  H15 UNL     1     151.457 164.279 166.481  0.00  0.00    +0.000 HD
ENDBRANCH   4  10
BRANCH   6  13
ATOM     13  O8  UNL     1     150.012 161.648 169.677  0.00  0.00    +0.000 OA
ATOM     14  H30 UNL     1     149.965 160.667 169.806  0.00  0.00    +0.000 HD
ENDBRANCH   6  13
BRANCH   1  15
ATOM     15  O2  UNL     1     153.441 161.266 170.076  0.00  0.00    +0.000 OA
BRANCH  15  18
ATOM     16  C2  UNL     1     156.107 159.004 169.985  0.00  0.00    +0.000 C 
ATOM     17  O1  UNL     1     155.341 160.122 169.784  0.00  0.00    +0.000 OA
ATOM     18  C3  UNL     1     154.117 160.110 170.423  0.00  0.00    +0.000 C 
ATOM     19  C16 UNL     1     154.367 160.166 171.916  0.00  0.00    +0.000 C 
ATOM     20  C17 UNL     1     155.776 159.753 172.277  0.00  0.00    +0.000 C 
ATOM     21  C18 UNL     1     156.264 158.620 171.435  0.00  0.00    +0.000 C 
BRANCH  19  22
ATOM     22  N5  UNL     1     154.185 161.519 172.410  0.00  0.00    +0.000 NA
ATOM     23  H32 UNL     1     153.998 161.567 173.417  0.00  0.00    +0.000 HD
ATOM     24  H33 UNL     1     153.505 162.058 171.829  0.00  0.00    +0.000 HD
ENDBRANCH  19  22
BRANCH  21  25
ATOM     25  O9  UNL     1     157.585 158.352 171.753  0.00  0.00    +0.000 OA
ATOM     26  H37 UNL     1     157.975 159.090 172.281  0.00  0.00    +0.000 HD
ENDBRANCH  21  25
BRANCH  16  27
ATOM     27  C1  UNL     1     155.583 157.791 169.249  0.00  0.00    +0.000 C 
BRANCH  27  28
ATOM     28  N1  UNL     1     155.559 156.633 170.117  0.00  0.00    +0.000 NA
ATOM     29  H1  UNL     1     155.965 155.803 169.645  0.00  0.00    +0.000 HD
ATOM     30  H2  UNL     1     154.559 156.410 170.323  0.00  0.00    +0.000 HD
ENDBRANCH  27  28
ENDBRANCH  16  27
ENDBRANCH  15  18
ENDBRANCH   1  15
BRANCH   5  31
ATOM     31  O3  UNL     1     150.970 164.404 169.257  0.00  0.00    +0.000 OA
BRANCH  31  32
ATOM     32  C9  UNL     1     149.844 164.987 168.685  0.00  0.00    +0.000 C 
ATOM     33  O4  UNL     1     149.287 164.125 167.775  0.00  0.00    +0.000 OA
ATOM     34  C10 UNL     1     148.132 164.632 167.236  0.00  0.00    +0.000 C 
ATOM     35  C12 UNL     1     147.031 164.637 168.278  0.00  0.00    +0.000 C 
ATOM     36  C13 UNL     1     147.563 164.612 169.677  0.00  0.00    +0.000 C 
ATOM     37  C14 UNL     1     148.888 165.302 169.813  0.00  0.00    +0.000 C 
BRANCH  36  38
ATOM     38  N4  UNL     1     146.598 165.305 170.526  0.00  0.00    +0.000 NA
ATOM     39  H25 UNL     1     146.106 164.617 171.124  0.00  0.00    +0.000 HD
ATOM     40  H26 UNL     1     147.085 166.014 171.135  0.00  0.00    +0.000 HD
ENDBRANCH  36  38
BRANCH  35  41
ATOM     41  O6  UNL     1     146.210 163.543 168.046  0.00  0.00    +0.000 OA
ATOM     42  H23 UNL     1     145.869 163.515 167.119  0.00  0.00    +0.000 HD
ENDBRANCH  35  41
BRANCH  37  43
ATOM     43  O7  UNL     1     149.413 164.912 171.065  0.00  0.00    +0.000 OA
ATOM     44  H28 UNL     1     148.691 164.689 171.696  0.00  0.00    +0.000 HD
ENDBRANCH  37  43
BRANCH  34  45
ATOM     45  C11 UNL     1     148.253 166.047 166.718  0.00  0.00    +0.000 C 
BRANCH  45  46
ATOM     46  O5  UNL     1     147.407 166.123 165.587  0.00  0.00    +0.000 OA
ATOM     47  H21 UNL     1     147.804 165.673 164.811  0.00  0.00    +0.000 HD
ENDBRANCH  45  46
ENDBRANCH  34  45
ENDBRANCH  31  32
ENDBRANCH   5  31
TORSDOF 16
ENDMDL
