MODEL 1
REMARK VINA RESULT:      -6.2      0.000      0.000
REMARK  Name = ./3D_structures\o46_MMV141011_3D.pdb
REMARK  2 active torsions:
REMARK  status: ('A' for Active; 'I' for Inactive)
REMARK    1  A    between atoms: C5_6  and  C7_8
REMARK    2  A    between atoms: C8_10  and  C9_13
REMARK                            x       y       z     vdW  Elec       q    Type
REMARK                         _______ _______ _______ _____ _____    ______ ____
ROOT
ATOM      1  C7  UNL     1     157.147 155.924 165.425  0.00  0.00    +0.000 A 
ATOM      2  O1  UNL     1     157.726 156.246 166.546  0.00  0.00    +0.000 OA
ATOM      3  C8  UNL     1     156.884 156.868 167.321  0.00  0.00    +0.000 A 
ATOM      4  N1  UNL     1     155.722 156.935 166.647  0.00  0.00    +0.000 NA
ATOM      5  N2  UNL     1     155.884 156.344 165.460  0.00  0.00    +0.000 NA
ENDROOT
BRANCH   1  11
ATOM      6 CL1  UNL     1     160.041 151.953 163.775  0.00  0.00    +0.000 Cl
ATOM      7  C1  UNL     1     159.114 153.427 163.521  0.00  0.00    +0.000 A 
ATOM      8  C2  UNL     1     159.020 153.907 162.224  0.00  0.00    +0.000 A 
ATOM      9  C3  UNL     1     158.300 155.064 161.984  0.00  0.00    +0.000 A 
ATOM     10  C4  UNL     1     157.691 155.720 163.024  0.00  0.00    +0.000 A 
ATOM     11  C5  UNL     1     157.798 155.219 164.329  0.00  0.00    +0.000 A 
ATOM     12  C6  UNL     1     158.513 154.067 164.579  0.00  0.00    +0.000 A 
ENDBRANCH   1  11
BRANCH   3  13
ATOM     13  C9  UNL     1     157.066 157.413 168.655  0.00  0.00    +0.000 A 
ATOM     14  C10 UNL     1     156.121 157.242 169.645  0.00  0.00    +0.000 A 
ATOM     15  C11 UNL     1     156.290 157.758 170.909  0.00  0.00    +0.000 A 
ATOM     16  C12 UNL     1     157.412 158.472 171.252  0.00  0.00    +0.000 A 
ATOM     17  C13 UNL     1     158.379 158.661 170.279  0.00  0.00    +0.000 A 
ATOM     18  C14 UNL     1     158.186 158.135 169.021  0.00  0.00    +0.000 A 
ENDBRANCH   3  13
TORSDOF 2
ENDMDL
MODEL 2
REMARK VINA RESULT:      -6.1      1.236      2.005
REMARK  Name = ./3D_structures\o46_MMV141011_3D.pdb
REMARK  2 active torsions:
REMARK  status: ('A' for Active; 'I' for Inactive)
REMARK    1  A    between atoms: C5_6  and  C7_8
REMARK    2  A    between atoms: C8_10  and  C9_13
REMARK                            x       y       z     vdW  Elec       q    Type
REMARK                         _______ _______ _______ _____ _____    ______ ____
ROOT
ATOM      1  C7  UNL     1     157.322 155.925 165.514  0.00  0.00    +0.000 A 
ATOM      2  O1  UNL     1     157.835 156.264 166.663  0.00  0.00    +0.000 OA
ATOM      3  C8  UNL     1     156.937 156.856 167.397  0.00  0.00    +0.000 A 
ATOM      4  N1  UNL     1     155.808 156.886 166.668  0.00  0.00    +0.000 NA
ATOM      5  N2  UNL     1     156.046 156.304 165.489  0.00  0.00    +0.000 NA
ENDROOT
BRANCH   1  11
ATOM      6 CL1  UNL     1     158.961 155.822 160.598  0.00  0.00    +0.000 Cl
ATOM      7  C1  UNL     1     158.822 155.146 162.217  0.00  0.00    +0.000 A 
ATOM      8  C2  UNL     1     159.434 153.925 162.455  0.00  0.00    +0.000 A 
ATOM      9  C3  UNL     1     159.347 153.361 163.715  0.00  0.00    +0.000 A 
ATOM     10  C4  UNL     1     158.660 154.011 164.710  0.00  0.00    +0.000 A 
ATOM     11  C5  UNL     1     158.047 155.244 164.450  0.00  0.00    +0.000 A 
ATOM     12  C6  UNL     1     158.128 155.815 163.198  0.00  0.00    +0.000 A 
ENDBRANCH   1  11
BRANCH   3  13
ATOM     13  C9  UNL     1     157.037 157.404 168.738  0.00  0.00    +0.000 A 
ATOM     14  C10 UNL     1     158.144 158.114 169.152  0.00  0.00    +0.000 A 
ATOM     15  C11 UNL     1     158.243 158.633 170.422  0.00  0.00    +0.000 A 
ATOM     16  C12 UNL     1     157.240 158.471 171.346  0.00  0.00    +0.000 A 
ATOM     17  C13 UNL     1     156.115 157.763 170.960  0.00  0.00    +0.000 A 
ATOM     18  C14 UNL     1     156.040 157.253 169.684  0.00  0.00    +0.000 A 
ENDBRANCH   3  13
TORSDOF 2
ENDMDL
MODEL 3
REMARK VINA RESULT:      -6.1      3.400      4.940
REMARK  Name = ./3D_structures\o46_MMV141011_3D.pdb
REMARK  2 active torsions:
REMARK  status: ('A' for Active; 'I' for Inactive)
REMARK    1  A    between atoms: C5_6  and  C7_8
REMARK    2  A    between atoms: C8_10  and  C9_13
REMARK                            x       y       z     vdW  Elec       q    Type
REMARK                         _______ _______ _______ _____ _____    ______ ____
ROOT
ATOM      1  C7  UNL     1     157.756 158.261 169.570  0.00  0.00    +0.000 A 
ATOM      2  O1  UNL     1     156.580 158.761 169.824  0.00  0.00    +0.000 OA
ATOM      3  C8  UNL     1     156.456 158.987 171.100  0.00  0.00    +0.000 A 
ATOM      4  N1  UNL     1     157.614 158.609 171.669  0.00  0.00    +0.000 NA
ATOM      5  N2  UNL     1     158.430 158.155 170.713  0.00  0.00    +0.000 NA
ENDROOT
BRANCH   1  11
ATOM      6 CL1  UNL     1     156.990 155.727 165.114  0.00  0.00    +0.000 Cl
ATOM      7  C1  UNL     1     157.931 156.752 166.191  0.00  0.00    +0.000 A 
ATOM      8  C2  UNL     1     159.160 157.203 165.732  0.00  0.00    +0.000 A 
ATOM      9  C3  UNL     1     159.930 158.011 166.550  0.00  0.00    +0.000 A 
ATOM     10  C4  UNL     1     159.474 158.355 167.798  0.00  0.00    +0.000 A 
ATOM     11  C5  UNL     1     158.230 157.889 168.244  0.00  0.00    +0.000 A 
ATOM     12  C6  UNL     1     157.454 157.084 167.437  0.00  0.00    +0.000 A 
ENDBRANCH   1  11
BRANCH   3  13
ATOM     13  C9  UNL     1     155.338 159.533 171.850  0.00  0.00    +0.000 A 
ATOM     14  C10 UNL     1     154.118 159.781 171.258  0.00  0.00    +0.000 A 
ATOM     15  C11 UNL     1     153.058 160.299 171.965  0.00  0.00    +0.000 A 
ATOM     16  C12 UNL     1     153.160 160.597 173.302  0.00  0.00    +0.000 A 
ATOM     17  C13 UNL     1     154.373 160.358 173.925  0.00  0.00    +0.000 A 
ATOM     18  C14 UNL     1     155.419 159.840 173.196  0.00  0.00    +0.000 A 
ENDBRANCH   3  13
TORSDOF 2
ENDMDL
MODEL 4
REMARK VINA RESULT:      -6.1      4.444      8.385
REMARK  Name = ./3D_structures\o46_MMV141011_3D.pdb
REMARK  2 active torsions:
REMARK  status: ('A' for Active; 'I' for Inactive)
REMARK    1  A    between atoms: C5_6  and  C7_8
REMARK    2  A    between atoms: C8_10  and  C9_13
REMARK                            x       y       z     vdW  Elec       q    Type
REMARK                         _______ _______ _______ _____ _____    ______ ____
ROOT
ATOM      1  C7  UNL     1     156.726 158.827 170.911  0.00  0.00    +0.000 A 
ATOM      2  O1  UNL     1     156.585 158.523 169.652  0.00  0.00    +0.000 OA
ATOM      3  C8  UNL     1     157.703 158.052 169.178  0.00  0.00    +0.000 A 
ATOM      4  N1  UNL     1     158.583 158.064 170.194  0.00  0.00    +0.000 NA
ATOM      5  N2  UNL     1     157.974 158.549 171.280  0.00  0.00    +0.000 NA
ENDROOT
BRANCH   1  11
ATOM      6 CL1  UNL     1     151.909 160.683 171.380  0.00  0.00    +0.000 Cl
ATOM      7  C1  UNL     1     153.484 160.235 172.024  0.00  0.00    +0.000 A 
ATOM      8  C2  UNL     1     153.699 160.429 173.380  0.00  0.00    +0.000 A 
ATOM      9  C3  UNL     1     154.925 160.089 173.923  0.00  0.00    +0.000 A 
ATOM     10  C4  UNL     1     155.909 159.569 173.121  0.00  0.00    +0.000 A 
ATOM     11  C5  UNL     1     155.674 159.381 171.752  0.00  0.00    +0.000 A 
ATOM     12  C6  UNL     1     154.455 159.716 171.200  0.00  0.00    +0.000 A 
ENDBRANCH   1  11
BRANCH   3  13
ATOM     13  C9  UNL     1     158.030 157.582 167.843  0.00  0.00    +0.000 A 
ATOM     14  C10 UNL     1     159.155 158.017 167.176  0.00  0.00    +0.000 A 
ATOM     15  C11 UNL     1     159.467 157.576 165.911  0.00  0.00    +0.000 A 
ATOM     16  C12 UNL     1     158.671 156.676 165.245  0.00  0.00    +0.000 A 
ATOM     17  C13 UNL     1     157.534 156.221 165.889  0.00  0.00    +0.000 A 
ATOM     18  C14 UNL     1     157.243 156.678 167.155  0.00  0.00    +0.000 A 
ENDBRANCH   3  13
TORSDOF 2
ENDMDL
MODEL 5
REMARK VINA RESULT:      -6.0      9.874     10.838
REMARK  Name = ./3D_structures\o46_MMV141011_3D.pdb
REMARK  2 active torsions:
REMARK  status: ('A' for Active; 'I' for Inactive)
REMARK    1  A    between atoms: C5_6  and  C7_8
REMARK    2  A    between atoms: C8_10  and  C9_13
REMARK                            x       y       z     vdW  Elec       q    Type
REMARK                         _______ _______ _______ _____ _____    ______ ____
ROOT
ATOM      1  C7  UNL     1     162.513 148.571 168.809  0.00  0.00    +0.000 A 
ATOM      2  O1  UNL     1     162.872 147.906 169.871  0.00  0.00    +0.000 OA
ATOM      3  C8  UNL     1     161.831 147.355 170.427  0.00  0.00    +0.000 A 
ATOM      4  N1  UNL     1     160.771 147.695 169.672  0.00  0.00    +0.000 NA
ATOM      5  N2  UNL     1     161.195 148.456 168.659  0.00  0.00    +0.000 NA
ENDROOT
BRANCH   1  11
ATOM      6 CL1  UNL     1     166.834 151.381 168.263  0.00  0.00    +0.000 Cl
ATOM      7  C1  UNL     1     165.386 150.597 167.641  0.00  0.00    +0.000 A 
ATOM      8  C2  UNL     1     165.134 150.706 166.282  0.00  0.00    +0.000 A 
ATOM      9  C3  UNL     1     164.006 150.104 165.755  0.00  0.00    +0.000 A 
ATOM     10  C4  UNL     1     163.153 149.410 166.576  0.00  0.00    +0.000 A 
ATOM     11  C5  UNL     1     163.425 149.311 167.948  0.00  0.00    +0.000 A 
ATOM     12  C6  UNL     1     164.547 149.907 168.483  0.00  0.00    +0.000 A 
ENDBRANCH   1  11
BRANCH   3  13
ATOM     13  C9  UNL     1     161.732 146.527 171.615  0.00  0.00    +0.000 A 
ATOM     14  C10 UNL     1     160.923 145.411 171.657  0.00  0.00    +0.000 A 
ATOM     15  C11 UNL     1     160.827 144.624 172.782  0.00  0.00    +0.000 A 
ATOM     16  C12 UNL     1     161.534 144.910 173.925  0.00  0.00    +0.000 A 
ATOM     17  C13 UNL     1     162.355 146.025 173.912  0.00  0.00    +0.000 A 
ATOM     18  C14 UNL     1     162.434 146.796 172.775  0.00  0.00    +0.000 A 
ENDBRANCH   3  13
TORSDOF 2
ENDMDL
MODEL 6
REMARK VINA RESULT:      -5.9     10.017     10.725
REMARK  Name = ./3D_structures\o46_MMV141011_3D.pdb
REMARK  2 active torsions:
REMARK  status: ('A' for Active; 'I' for Inactive)
REMARK    1  A    between atoms: C5_6  and  C7_8
REMARK    2  A    between atoms: C8_10  and  C9_13
REMARK                            x       y       z     vdW  Elec       q    Type
REMARK                         _______ _______ _______ _____ _____    ______ ____
ROOT
ATOM      1  C7  UNL     1     148.284 151.782 167.133  0.00  0.00    +0.000 A 
ATOM      2  O1  UNL     1     148.023 152.279 168.309  0.00  0.00    +0.000 OA
ATOM      3  C8  UNL     1     149.124 152.417 168.991  0.00  0.00    +0.000 A 
ATOM      4  N1  UNL     1     150.120 151.983 168.199  0.00  0.00    +0.000 NA
ATOM      5  N2  UNL     1     149.598 151.586 167.036  0.00  0.00    +0.000 NA
ENDROOT
BRANCH   1  11
ATOM      6 CL1  UNL     1     147.123 150.865 162.166  0.00  0.00    +0.000 Cl
ATOM      7  C1  UNL     1     146.699 151.073 163.861  0.00  0.00    +0.000 A 
ATOM      8  C2  UNL     1     145.360 150.957 164.203  0.00  0.00    +0.000 A 
ATOM      9  C3  UNL     1     144.986 151.115 165.526  0.00  0.00    +0.000 A 
ATOM     10  C4  UNL     1     145.937 151.383 166.479  0.00  0.00    +0.000 A 
ATOM     11  C5  UNL     1     147.284 151.498 166.113  0.00  0.00    +0.000 A 
ATOM     12  C6  UNL     1     147.668 151.342 164.798  0.00  0.00    +0.000 A 
ENDBRANCH   1  11
BRANCH   3  13
ATOM     13  C9  UNL     1     149.336 152.924 170.335  0.00  0.00    +0.000 A 
ATOM     14  C10 UNL     1     148.594 152.473 171.407  0.00  0.00    +0.000 A 
ATOM     15  C11 UNL     1     148.791 152.953 172.681  0.00  0.00    +0.000 A 
ATOM     16  C12 UNL     1     149.740 153.909 172.953  0.00  0.00    +0.000 A 
ATOM     17  C13 UNL     1     150.500 154.381 171.897  0.00  0.00    +0.000 A 
ATOM     18  C14 UNL     1     150.284 153.885 170.631  0.00  0.00    +0.000 A 
ENDBRANCH   3  13
TORSDOF 2
ENDMDL
MODEL 7
REMARK VINA RESULT:      -5.8      2.894      7.134
REMARK  Name = ./3D_structures\o46_MMV141011_3D.pdb
REMARK  2 active torsions:
REMARK  status: ('A' for Active; 'I' for Inactive)
REMARK    1  A    between atoms: C5_6  and  C7_8
REMARK    2  A    between atoms: C8_10  and  C9_13
REMARK                            x       y       z     vdW  Elec       q    Type
REMARK                         _______ _______ _______ _____ _____    ______ ____
ROOT
ATOM      1  C7  UNL     1     156.710 157.137 167.350  0.00  0.00    +0.000 A 
ATOM      2  O1  UNL     1     157.651 156.506 166.707  0.00  0.00    +0.000 OA
ATOM      3  C8  UNL     1     157.182 156.018 165.594  0.00  0.00    +0.000 A 
ATOM      4  N1  UNL     1     155.884 156.364 165.543  0.00  0.00    +0.000 NA
ATOM      5  N2  UNL     1     155.586 157.065 166.640  0.00  0.00    +0.000 NA
ENDROOT
BRANCH   1  11
ATOM      6 CL1  UNL     1     154.635 159.569 171.430  0.00  0.00    +0.000 Cl
ATOM      7  C1  UNL     1     155.993 158.918 170.519  0.00  0.00    +0.000 A 
ATOM      8  C2  UNL     1     157.258 159.061 171.068  0.00  0.00    +0.000 A 
ATOM      9  C3  UNL     1     158.351 158.562 170.381  0.00  0.00    +0.000 A 
ATOM     10  C4  UNL     1     158.173 157.937 169.172  0.00  0.00    +0.000 A 
ATOM     11  C5  UNL     1     156.887 157.803 168.633  0.00  0.00    +0.000 A 
ATOM     12  C6  UNL     1     155.791 158.296 169.309  0.00  0.00    +0.000 A 
ENDBRANCH   1  11
BRANCH   3  13
ATOM     13  C9  UNL     1     157.845 155.248 164.557  0.00  0.00    +0.000 A 
ATOM     14  C10 UNL     1     158.800 154.298 164.856  0.00  0.00    +0.000 A 
ATOM     15  C11 UNL     1     159.431 153.568 163.876  0.00  0.00    +0.000 A 
ATOM     16  C12 UNL     1     159.142 153.746 162.545  0.00  0.00    +0.000 A 
ATOM     17  C13 UNL     1     158.187 154.692 162.213  0.00  0.00    +0.000 A 
ATOM     18  C14 UNL     1     157.570 155.411 163.212  0.00  0.00    +0.000 A 
ENDBRANCH   3  13
TORSDOF 2
ENDMDL
MODEL 8
REMARK VINA RESULT:      -5.7      4.637      8.600
REMARK  Name = ./3D_structures\o46_MMV141011_3D.pdb
REMARK  2 active torsions:
REMARK  status: ('A' for Active; 'I' for Inactive)
REMARK    1  A    between atoms: C5_6  and  C7_8
REMARK    2  A    between atoms: C8_10  and  C9_13
REMARK                            x       y       z     vdW  Elec       q    Type
REMARK                         _______ _______ _______ _____ _____    ______ ____
ROOT
ATOM      1  C7  UNL     1     157.334 159.184 170.902  0.00  0.00    +0.000 A 
ATOM      2  O1  UNL     1     156.776 158.897 169.760  0.00  0.00    +0.000 OA
ATOM      3  C8  UNL     1     157.573 158.153 169.048  0.00  0.00    +0.000 A 
ATOM      4  N1  UNL     1     158.682 157.968 169.784  0.00  0.00    +0.000 NA
ATOM      5  N2  UNL     1     158.535 158.612 170.945  0.00  0.00    +0.000 NA
ENDROOT
BRANCH   1  11
ATOM      6 CL1  UNL     1     156.907 163.758 173.303  0.00  0.00    +0.000 Cl
ATOM      7  C1  UNL     1     156.487 162.065 173.072  0.00  0.00    +0.000 A 
ATOM      8  C2  UNL     1     155.538 161.520 173.925  0.00  0.00    +0.000 A 
ATOM      9  C3  UNL     1     155.181 160.192 173.775  0.00  0.00    +0.000 A 
ATOM     10  C4  UNL     1     155.765 159.432 172.793  0.00  0.00    +0.000 A 
ATOM     11  C5  UNL     1     156.722 160.000 171.941  0.00  0.00    +0.000 A 
ATOM     12  C6  UNL     1     157.085 161.323 172.081  0.00  0.00    +0.000 A 
ENDBRANCH   1  11
BRANCH   3  13
ATOM     13  C9  UNL     1     157.391 157.589 167.722  0.00  0.00    +0.000 A 
ATOM     14  C10 UNL     1     156.137 157.375 167.189  0.00  0.00    +0.000 A 
ATOM     15  C11 UNL     1     155.961 156.840 165.935  0.00  0.00    +0.000 A 
ATOM     16  C12 UNL     1     157.029 156.489 165.144  0.00  0.00    +0.000 A 
ATOM     17  C13 UNL     1     158.301 156.692 165.652  0.00  0.00    +0.000 A 
ATOM     18  C14 UNL     1     158.450 157.229 166.910  0.00  0.00    +0.000 A 
ENDBRANCH   3  13
TORSDOF 2
ENDMDL
MODEL 9
REMARK VINA RESULT:      -5.7      9.337     10.577
REMARK  Name = ./3D_structures\o46_MMV141011_3D.pdb
REMARK  2 active torsions:
REMARK  status: ('A' for Active; 'I' for Inactive)
REMARK    1  A    between atoms: C5_6  and  C7_8
REMARK    2  A    between atoms: C8_10  and  C9_13
REMARK                            x       y       z     vdW  Elec       q    Type
REMARK                         _______ _______ _______ _____ _____    ______ ____
ROOT
ATOM      1  C7  UNL     1     163.200 149.333 168.247  0.00  0.00    +0.000 A 
ATOM      2  O1  UNL     1     163.246 148.487 169.237  0.00  0.00    +0.000 OA
ATOM      3  C8  UNL     1     162.068 147.965 169.434  0.00  0.00    +0.000 A 
ATOM      4  N1  UNL     1     161.250 148.515 168.520  0.00  0.00    +0.000 NA
ATOM      5  N2  UNL     1     161.955 149.371 167.776  0.00  0.00    +0.000 NA
ENDROOT
BRANCH   1  11
ATOM      6 CL1  UNL     1     165.581 151.774 164.344  0.00  0.00    +0.000 Cl
ATOM      7  C1  UNL     1     165.469 151.226 166.012  0.00  0.00    +0.000 A 
ATOM      8  C2  UNL     1     166.515 151.550 166.863  0.00  0.00    +0.000 A 
ATOM      9  C3  UNL     1     166.464 151.137 168.183  0.00  0.00    +0.000 A 
ATOM     10  C4  UNL     1     165.386 150.416 168.632  0.00  0.00    +0.000 A 
ATOM     11  C5  UNL     1     164.339 150.098 167.758  0.00  0.00    +0.000 A 
ATOM     12  C6  UNL     1     164.380 150.505 166.441  0.00  0.00    +0.000 A 
ENDBRANCH   1  11
BRANCH   3  13
ATOM     13  C9  UNL     1     161.631 146.985 170.412  0.00  0.00    +0.000 A 
ATOM     14  C10 UNL     1     162.359 146.723 171.554  0.00  0.00    +0.000 A 
ATOM     15  C11 UNL     1     161.948 145.795 172.481  0.00  0.00    +0.000 A 
ATOM     16  C12 UNL     1     160.787 145.078 172.318  0.00  0.00    +0.000 A 
ATOM     17  C13 UNL     1     160.035 145.319 171.181  0.00  0.00    +0.000 A 
ATOM     18  C14 UNL     1     160.467 146.253 170.268  0.00  0.00    +0.000 A 
ENDBRANCH   3  13
TORSDOF 2
ENDMDL
