MODEL 1
REMARK VINA RESULT:      -4.8      0.000      0.000
REMARK  Name = ./3D_structures\o47_MMV002516_3D.pdb
REMARK  5 active torsions:
REMARK  status: ('A' for Active; 'I' for Inactive)
REMARK    1  A    between atoms: C1_1  and  C2_2
REMARK    2  A    between atoms: C2_2  and  C3_3
REMARK    3  A    between atoms: C4_4  and  C5_5
REMARK    4  A    between atoms: C5_5  and  C6_6
REMARK    5  A    between atoms: N2_10  and  C9_11
REMARK                            x       y       z     vdW  Elec       q    Type
REMARK                         _______ _______ _______ _____ _____    ______ ____
ROOT
ATOM      1  C3  UNL     1     145.346 165.528 166.315  0.00  0.00    +0.000 C 
ATOM      2  C4  UNL     1     146.600 165.609 167.129  0.00  0.00    +0.000 C 
ATOM      3  C10 UNL     1     147.518 166.349 166.228  0.00  0.00    +0.000 C 
ATOM      4  O1  UNL     1     146.649 167.209 165.467  0.00  0.00    +0.000 OA
ATOM      5  C11 UNL     1     145.324 166.858 165.655  0.00  0.00    +0.000 C 
ATOM      6  O2  UNL     1     144.283 167.510 165.344  0.00  0.00    +0.000 OA
ENDROOT
BRANCH   1   8
ATOM      7  C1  UNL     1     143.895 163.904 165.034  0.00  0.00    +0.000 C 
ATOM      8  C2  UNL     1     145.251 164.409 165.357  0.00  0.00    +0.000 C 
ENDBRANCH   1   8
BRANCH   2   9
ATOM      9  C5  UNL     1     147.062 164.333 167.700  0.00  0.00    +0.000 C 
BRANCH   9  10
ATOM     10  C6  UNL     1     148.006 164.506 168.837  0.00  0.00    +0.000 A 
ATOM     11  C7  UNL     1     147.758 165.084 170.066  0.00  0.00    +0.000 A 
ATOM     12  N1  UNL     1     148.870 165.032 170.811  0.00  0.00    +0.000 NA
ATOM     13  C8  UNL     1     149.819 164.438 170.094  0.00  0.00    +0.000 A 
ATOM     14  N2  UNL     1     149.301 164.115 168.892  0.00  0.00    +0.000 N 
ATOM     15  C9  UNL     1     150.092 163.445 167.883  0.00  0.00    +0.000 C 
ENDBRANCH   9  10
ENDBRANCH   2   9
TORSDOF 3
ENDMDL
MODEL 2
REMARK VINA RESULT:      -4.7      3.332      5.533
REMARK  Name = ./3D_structures\o47_MMV002516_3D.pdb
REMARK  5 active torsions:
REMARK  status: ('A' for Active; 'I' for Inactive)
REMARK    1  A    between atoms: C1_1  and  C2_2
REMARK    2  A    between atoms: C2_2  and  C3_3
REMARK    3  A    between atoms: C4_4  and  C5_5
REMARK    4  A    between atoms: C5_5  and  C6_6
REMARK    5  A    between atoms: N2_10  and  C9_11
REMARK                            x       y       z     vdW  Elec       q    Type
REMARK                         _______ _______ _______ _____ _____    ______ ____
ROOT
ATOM      1  C3  UNL     1     148.369 164.443 168.815  0.00  0.00    +0.000 C 
ATOM      2  C4  UNL     1     147.201 165.169 168.223  0.00  0.00    +0.000 C 
ATOM      3  C10 UNL     1     146.174 165.043 169.287  0.00  0.00    +0.000 C 
ATOM      4  O1  UNL     1     146.936 165.004 170.510  0.00  0.00    +0.000 OA
ATOM      5  C11 UNL     1     148.283 164.838 170.243  0.00  0.00    +0.000 C 
ATOM      6  O2  UNL     1     149.266 164.987 171.028  0.00  0.00    +0.000 OA
ENDROOT
BRANCH   1   8
ATOM      7  C1  UNL     1     149.685 162.288 168.897  0.00  0.00    +0.000 C 
ATOM      8  C2  UNL     1     148.402 162.980 168.624  0.00  0.00    +0.000 C 
ENDBRANCH   1   8
BRANCH   2   9
ATOM      9  C5  UNL     1     146.838 164.767 166.854  0.00  0.00    +0.000 C 
BRANCH   9  10
ATOM     10  C6  UNL     1     145.690 165.535 166.301  0.00  0.00    +0.000 A 
ATOM     11  C7  UNL     1     145.688 166.828 165.817  0.00  0.00    +0.000 A 
ATOM     12  N1  UNL     1     144.454 167.141 165.400  0.00  0.00    +0.000 NA
ATOM     13  C8  UNL     1     143.670 166.087 165.605  0.00  0.00    +0.000 A 
ATOM     14  N2  UNL     1     144.415 165.106 166.152  0.00  0.00    +0.000 N 
ATOM     15  C9  UNL     1     143.843 163.820 166.486  0.00  0.00    +0.000 C 
ENDBRANCH   9  10
ENDBRANCH   2   9
TORSDOF 3
ENDMDL
MODEL 3
REMARK VINA RESULT:      -4.6      3.229      5.402
REMARK  Name = ./3D_structures\o47_MMV002516_3D.pdb
REMARK  5 active torsions:
REMARK  status: ('A' for Active; 'I' for Inactive)
REMARK    1  A    between atoms: C1_1  and  C2_2
REMARK    2  A    between atoms: C2_2  and  C3_3
REMARK    3  A    between atoms: C4_4  and  C5_5
REMARK    4  A    between atoms: C5_5  and  C6_6
REMARK    5  A    between atoms: N2_10  and  C9_11
REMARK                            x       y       z     vdW  Elec       q    Type
REMARK                         _______ _______ _______ _____ _____    ______ ____
ROOT
ATOM      1  C3  UNL     1     145.621 165.345 166.158  0.00  0.00    +0.000 C 
ATOM      2  C4  UNL     1     144.446 164.759 165.439  0.00  0.00    +0.000 C 
ATOM      3  C10 UNL     1     143.445 165.851 165.520  0.00  0.00    +0.000 C 
ATOM      4  O1  UNL     1     144.236 167.055 165.526  0.00  0.00    +0.000 OA
ATOM      5  C11 UNL     1     145.575 166.761 165.715  0.00  0.00    +0.000 C 
ATOM      6  O2  UNL     1     146.579 167.516 165.551  0.00  0.00    +0.000 OA
ENDROOT
BRANCH   1   8
ATOM      7  C1  UNL     1     146.947 164.952 168.272  0.00  0.00    +0.000 C 
ATOM      8  C2  UNL     1     145.635 165.202 167.627  0.00  0.00    +0.000 C 
ENDBRANCH   1   8
BRANCH   2   9
ATOM      9  C5  UNL     1     144.046 163.413 165.882  0.00  0.00    +0.000 C 
BRANCH   9  10
ATOM     10  C6  UNL     1     144.320 162.356 164.871  0.00  0.00    +0.000 A 
ATOM     11  C7  UNL     1     144.540 162.514 163.517  0.00  0.00    +0.000 A 
ATOM     12  N1  UNL     1     144.762 161.315 162.963  0.00  0.00    +0.000 NA
ATOM     13  C8  UNL     1     144.689 160.398 163.923  0.00  0.00    +0.000 A 
ATOM     14  N2  UNL     1     144.421 161.024 165.087  0.00  0.00    +0.000 N 
ATOM     15  C9  UNL     1     144.289 160.290 166.326  0.00  0.00    +0.000 C 
ENDBRANCH   9  10
ENDBRANCH   2   9
TORSDOF 3
ENDMDL
MODEL 4
REMARK VINA RESULT:      -4.4      2.369      2.901
REMARK  Name = ./3D_structures\o47_MMV002516_3D.pdb
REMARK  5 active torsions:
REMARK  status: ('A' for Active; 'I' for Inactive)
REMARK    1  A    between atoms: C1_1  and  C2_2
REMARK    2  A    between atoms: C2_2  and  C3_3
REMARK    3  A    between atoms: C4_4  and  C5_5
REMARK    4  A    between atoms: C5_5  and  C6_6
REMARK    5  A    between atoms: N2_10  and  C9_11
REMARK                            x       y       z     vdW  Elec       q    Type
REMARK                         _______ _______ _______ _____ _____    ______ ____
ROOT
ATOM      1  C3  UNL     1     144.587 164.295 165.211  0.00  0.00    +0.000 C 
ATOM      2  C4  UNL     1     145.728 164.291 166.180  0.00  0.00    +0.000 C 
ATOM      3  C10 UNL     1     145.717 162.894 166.681  0.00  0.00    +0.000 C 
ATOM      4  O1  UNL     1     145.222 162.124 165.568  0.00  0.00    +0.000 OA
ATOM      5  C11 UNL     1     144.713 162.954 164.585  0.00  0.00    +0.000 C 
ATOM      6  O2  UNL     1     144.409 162.666 163.390  0.00  0.00    +0.000 OA
ENDROOT
BRANCH   1   8
ATOM      7  C1  UNL     1     142.246 165.185 164.883  0.00  0.00    +0.000 C 
ATOM      8  C2  UNL     1     143.245 164.544 165.772  0.00  0.00    +0.000 C 
ENDBRANCH   1   8
BRANCH   2   9
ATOM      9  C5  UNL     1     145.719 165.385 167.166  0.00  0.00    +0.000 C 
BRANCH   9  10
ATOM     10  C6  UNL     1     146.536 165.093 168.374  0.00  0.00    +0.000 A 
ATOM     11  C7  UNL     1     146.093 164.746 169.635  0.00  0.00    +0.000 A 
ATOM     12  N1  UNL     1     147.148 164.556 170.437  0.00  0.00    +0.000 NA
ATOM     13  C8  UNL     1     148.250 164.772 169.726  0.00  0.00    +0.000 A 
ATOM     14  N2  UNL     1     147.886 165.099 168.470  0.00  0.00    +0.000 N 
ATOM     15  C9  UNL     1     148.870 165.387 167.449  0.00  0.00    +0.000 C 
ENDBRANCH   9  10
ENDBRANCH   2   9
TORSDOF 3
ENDMDL
MODEL 5
REMARK VINA RESULT:      -4.2     24.252     26.328
REMARK  Name = ./3D_structures\o47_MMV002516_3D.pdb
REMARK  5 active torsions:
REMARK  status: ('A' for Active; 'I' for Inactive)
REMARK    1  A    between atoms: C1_1  and  C2_2
REMARK    2  A    between atoms: C2_2  and  C3_3
REMARK    3  A    between atoms: C4_4  and  C5_5
REMARK    4  A    between atoms: C5_5  and  C6_6
REMARK    5  A    between atoms: N2_10  and  C9_11
REMARK                            x       y       z     vdW  Elec       q    Type
REMARK                         _______ _______ _______ _____ _____    ______ ____
ROOT
ATOM      1  C3  UNL     1     162.089 145.755 171.288  0.00  0.00    +0.000 C 
ATOM      2  C4  UNL     1     161.590 144.740 170.306  0.00  0.00    +0.000 C 
ATOM      3  C10 UNL     1     160.176 145.149 170.117  0.00  0.00    +0.000 C 
ATOM      4  O1  UNL     1     160.193 146.578 170.302  0.00  0.00    +0.000 OA
ATOM      5  C11 UNL     1     161.407 146.989 170.825  0.00  0.00    +0.000 C 
ATOM      6  O2  UNL     1     161.872 148.165 170.907  0.00  0.00    +0.000 OA
ENDROOT
BRANCH   1   8
ATOM      7  C1  UNL     1     162.492 146.364 173.706  0.00  0.00    +0.000 C 
ATOM      8  C2  UNL     1     161.851 145.466 172.715  0.00  0.00    +0.000 C 
ENDBRANCH   1   8
BRANCH   2   9
ATOM      9  C5  UNL     1     161.869 143.337 170.656  0.00  0.00    +0.000 C 
BRANCH   9  10
ATOM     10  C6  UNL     1     162.999 142.753 169.884  0.00  0.00    +0.000 A 
ATOM     11  C7  UNL     1     164.343 143.051 169.990  0.00  0.00    +0.000 A 
ATOM     12  N1  UNL     1     165.032 142.296 169.126  0.00  0.00    +0.000 NA
ATOM     13  C8  UNL     1     164.168 141.527 168.471  0.00  0.00    +0.000 A 
ATOM     14  N2  UNL     1     162.929 141.799 168.927  0.00  0.00    +0.000 N 
ATOM     15  C9  UNL     1     161.766 141.112 168.410  0.00  0.00    +0.000 C 
ENDBRANCH   9  10
ENDBRANCH   2   9
TORSDOF 3
ENDMDL
MODEL 6
REMARK VINA RESULT:      -4.2     10.262     12.674
REMARK  Name = ./3D_structures\o47_MMV002516_3D.pdb
REMARK  5 active torsions:
REMARK  status: ('A' for Active; 'I' for Inactive)
REMARK    1  A    between atoms: C1_1  and  C2_2
REMARK    2  A    between atoms: C2_2  and  C3_3
REMARK    3  A    between atoms: C4_4  and  C5_5
REMARK    4  A    between atoms: C5_5  and  C6_6
REMARK    5  A    between atoms: N2_10  and  C9_11
REMARK                            x       y       z     vdW  Elec       q    Type
REMARK                         _______ _______ _______ _____ _____    ______ ____
ROOT
ATOM      1  C3  UNL     1     157.386 159.284 169.936  0.00  0.00    +0.000 C 
ATOM      2  C4  UNL     1     156.144 158.565 170.362  0.00  0.00    +0.000 C 
ATOM      3  C10 UNL     1     156.253 158.590 171.842  0.00  0.00    +0.000 C 
ATOM      4  O1  UNL     1     156.962 159.812 172.123  0.00  0.00    +0.000 OA
ATOM      5  C11 UNL     1     157.489 160.352 170.963  0.00  0.00    +0.000 C 
ATOM      6  O2  UNL     1     157.966 161.510 170.778  0.00  0.00    +0.000 OA
ENDROOT
BRANCH   1   8
ATOM      7  C1  UNL     1     159.397 158.595 168.571  0.00  0.00    +0.000 C 
ATOM      8  C2  UNL     1     158.614 158.474 169.825  0.00  0.00    +0.000 C 
ENDBRANCH   1   8
BRANCH   2   9
ATOM      9  C5  UNL     1     155.910 157.270 169.702  0.00  0.00    +0.000 C 
BRANCH   9  10
ATOM     10  C6  UNL     1     155.623 157.395 168.248  0.00  0.00    +0.000 A 
ATOM     11  C7  UNL     1     156.336 156.861 167.193  0.00  0.00    +0.000 A 
ATOM     12  N1  UNL     1     155.739 157.196 166.042  0.00  0.00    +0.000 NA
ATOM     13  C8  UNL     1     154.667 157.928 166.332  0.00  0.00    +0.000 A 
ATOM     14  N2  UNL     1     154.590 158.053 167.672  0.00  0.00    +0.000 N 
ATOM     15  C9  UNL     1     153.518 158.793 168.301  0.00  0.00    +0.000 C 
ENDBRANCH   9  10
ENDBRANCH   2   9
TORSDOF 3
ENDMDL
MODEL 7
REMARK VINA RESULT:      -4.2     11.092     12.567
REMARK  Name = ./3D_structures\o47_MMV002516_3D.pdb
REMARK  5 active torsions:
REMARK  status: ('A' for Active; 'I' for Inactive)
REMARK    1  A    between atoms: C1_1  and  C2_2
REMARK    2  A    between atoms: C2_2  and  C3_3
REMARK    3  A    between atoms: C4_4  and  C5_5
REMARK    4  A    between atoms: C5_5  and  C6_6
REMARK    5  A    between atoms: N2_10  and  C9_11
REMARK                            x       y       z     vdW  Elec       q    Type
REMARK                         _______ _______ _______ _____ _____    ______ ____
ROOT
ATOM      1  C3  UNL     1     157.381 158.129 165.590  0.00  0.00    +0.000 C 
ATOM      2  C4  UNL     1     157.177 157.921 167.058  0.00  0.00    +0.000 C 
ATOM      3  C10 UNL     1     155.952 157.084 167.095  0.00  0.00    +0.000 C 
ATOM      4  O1  UNL     1     156.012 156.316 165.878  0.00  0.00    +0.000 OA
ATOM      5  C11 UNL     1     156.997 156.806 165.037  0.00  0.00    +0.000 C 
ATOM      6  O2  UNL     1     157.493 156.266 164.005  0.00  0.00    +0.000 OA
ENDROOT
BRANCH   1   8
ATOM      7  C1  UNL     1     157.150 159.767 163.680  0.00  0.00    +0.000 C 
ATOM      8  C2  UNL     1     156.641 159.247 164.972  0.00  0.00    +0.000 C 
ENDBRANCH   1   8
BRANCH   2   9
ATOM      9  C5  UNL     1     157.210 159.144 167.877  0.00  0.00    +0.000 C 
BRANCH   9  10
ATOM     10  C6  UNL     1     157.306 158.871 169.337  0.00  0.00    +0.000 A 
ATOM     11  C7  UNL     1     158.415 158.469 170.054  0.00  0.00    +0.000 A 
ATOM     12  N1  UNL     1     158.084 158.345 171.346  0.00  0.00    +0.000 NA
ATOM     13  C8  UNL     1     156.798 158.657 171.473  0.00  0.00    +0.000 A 
ATOM     14  N2  UNL     1     156.318 158.978 170.256  0.00  0.00    +0.000 N 
ATOM     15  C9  UNL     1     154.939 159.374 170.067  0.00  0.00    +0.000 C 
ENDBRANCH   9  10
ENDBRANCH   2   9
TORSDOF 3
ENDMDL
MODEL 8
REMARK VINA RESULT:      -4.2     10.776     12.749
REMARK  Name = ./3D_structures\o47_MMV002516_3D.pdb
REMARK  5 active torsions:
REMARK  status: ('A' for Active; 'I' for Inactive)
REMARK    1  A    between atoms: C1_1  and  C2_2
REMARK    2  A    between atoms: C2_2  and  C3_3
REMARK    3  A    between atoms: C4_4  and  C5_5
REMARK    4  A    between atoms: C5_5  and  C6_6
REMARK    5  A    between atoms: N2_10  and  C9_11
REMARK                            x       y       z     vdW  Elec       q    Type
REMARK                         _______ _______ _______ _____ _____    ______ ____
ROOT
ATOM      1  C3  UNL     1     157.160 158.802 170.004  0.00  0.00    +0.000 C 
ATOM      2  C4  UNL     1     156.073 157.821 169.691  0.00  0.00    +0.000 C 
ATOM      3  C10 UNL     1     156.091 156.935 170.881  0.00  0.00    +0.000 C 
ATOM      4  O1  UNL     1     156.514 157.795 171.956  0.00  0.00    +0.000 OA
ATOM      5  C11 UNL     1     156.981 159.001 171.464  0.00  0.00    +0.000 C 
ATOM      6  O2  UNL     1     157.216 160.073 172.097  0.00  0.00    +0.000 OA
ENDROOT
BRANCH   1   8
ATOM      7  C1  UNL     1     159.364 159.401 168.925  0.00  0.00    +0.000 C 
ATOM      8  C2  UNL     1     158.534 158.403 169.642  0.00  0.00    +0.000 C 
ENDBRANCH   1   8
BRANCH   2   9
ATOM      9  C5  UNL     1     156.151 157.201 168.358  0.00  0.00    +0.000 C 
BRANCH   9  10
ATOM     10  C6  UNL     1     155.589 158.056 167.278  0.00  0.00    +0.000 A 
ATOM     11  C7  UNL     1     154.292 158.510 167.144  0.00  0.00    +0.000 A 
ATOM     12  N1  UNL     1     154.200 159.263 166.041  0.00  0.00    +0.000 NA
ATOM     13  C8  UNL     1     155.399 159.303 165.468  0.00  0.00    +0.000 A 
ATOM     14  N2  UNL     1     156.249 158.571 166.215  0.00  0.00    +0.000 N 
ATOM     15  C9  UNL     1     157.642 158.428 165.853  0.00  0.00    +0.000 C 
ENDBRANCH   9  10
ENDBRANCH   2   9
TORSDOF 3
ENDMDL
MODEL 9
REMARK VINA RESULT:      -4.1      9.468     11.865
REMARK  Name = ./3D_structures\o47_MMV002516_3D.pdb
REMARK  5 active torsions:
REMARK  status: ('A' for Active; 'I' for Inactive)
REMARK    1  A    between atoms: C1_1  and  C2_2
REMARK    2  A    between atoms: C2_2  and  C3_3
REMARK    3  A    between atoms: C4_4  and  C5_5
REMARK    4  A    between atoms: C5_5  and  C6_6
REMARK    5  A    between atoms: N2_10  and  C9_11
REMARK                            x       y       z     vdW  Elec       q    Type
REMARK                         _______ _______ _______ _____ _____    ______ ____
ROOT
ATOM      1  C3  UNL     1     156.968 158.265 169.277  0.00  0.00    +0.000 C 
ATOM      2  C4  UNL     1     155.965 158.716 170.293  0.00  0.00    +0.000 C 
ATOM      3  C10 UNL     1     156.513 158.155 171.552  0.00  0.00    +0.000 C 
ATOM      4  O1  UNL     1     157.939 158.153 171.347  0.00  0.00    +0.000 OA
ATOM      5  C11 UNL     1     158.244 158.409 170.022  0.00  0.00    +0.000 C 
ATOM      6  O2  UNL     1     159.365 158.709 169.515  0.00  0.00    +0.000 OA
ENDROOT
BRANCH   1   8
ATOM      7  C1  UNL     1     157.158 156.707 167.297  0.00  0.00    +0.000 C 
ATOM      8  C2  UNL     1     156.778 156.913 168.716  0.00  0.00    +0.000 C 
ENDBRANCH   1   8
BRANCH   2   9
ATOM      9  C5  UNL     1     154.559 158.433 169.957  0.00  0.00    +0.000 C 
BRANCH   9  10
ATOM     10  C6  UNL     1     153.605 159.407 170.553  0.00  0.00    +0.000 A 
ATOM     11  C7  UNL     1     153.888 160.640 171.107  0.00  0.00    +0.000 A 
ATOM     12  N1  UNL     1     152.748 161.210 171.519  0.00  0.00    +0.000 NA
ATOM     13  C8  UNL     1     151.748 160.378 171.244  0.00  0.00    +0.000 A 
ATOM     14  N2  UNL     1     152.262 159.279 170.656  0.00  0.00    +0.000 N 
ATOM     15  C9  UNL     1     151.417 158.186 170.229  0.00  0.00    +0.000 C 
ENDBRANCH   9  10
ENDBRANCH   2   9
TORSDOF 3
ENDMDL
