MODEL 1
REMARK VINA RESULT:      -6.3      0.000      0.000
REMARK  Name = ./3D_structures\o48_MMV688755_3D.pdb
REMARK  6 active torsions:
REMARK  status: ('A' for Active; 'I' for Inactive)
REMARK    1  A    between atoms: C1_2  and  O1_5
REMARK    2  A    between atoms: O1_5  and  C2_6
REMARK    3  A    between atoms: C5_9  and  C6_10
REMARK    4  A    between atoms: C6_10  and  O2_11
REMARK    5  A    between atoms: O2_11  and  C7_12
REMARK    6  A    between atoms: C10_17  and  N3_21
REMARK                            x       y       z     vdW  Elec       q    Type
REMARK                         _______ _______ _______ _____ _____    ______ ____
ROOT
ATOM      1  O2  UNL     1     151.378 162.166 167.103  0.00  0.00    +0.000 OA
ENDROOT
BRANCH   1   2
ATOM      2  C7  UNL     1     150.594 163.230 166.845  0.00  0.00    +0.000 C 
ATOM      3  C8  UNL     1     151.455 164.495 166.956  0.00  0.00    +0.000 C 
ATOM      4  O3  UNL     1     150.635 165.619 167.255  0.00  0.00    +0.000 OA
ATOM      5  C9  UNL     1     149.287 165.634 166.927  0.00  0.00    +0.000 A 
ATOM      6  N1  UNL     1     148.419 166.537 166.423  0.00  0.00    +0.000 NA
ATOM      7  C10 UNL     1     147.200 165.991 166.309  0.00  0.00    +0.000 A 
ATOM      8  C11 UNL     1     147.330 164.696 166.766  0.00  0.00    +0.000 A 
ATOM      9  N2  UNL     1     148.599 164.483 167.139  0.00  0.00    +0.000 N 
ATOM     10  C12 UNL     1     149.361 163.375 167.686  0.00  0.00    +0.000 C 
BRANCH   7  11
ATOM     11  N3  UNL     1     146.054 166.657 165.816  0.00  0.00    +0.000 N 
ATOM     12  O4  UNL     1     144.915 165.938 165.558  0.00  0.00    +0.000 OA
ATOM     13  O5  UNL     1     146.028 167.884 165.601  0.00  0.00    +0.000 OA
ENDBRANCH   7  11
ENDBRANCH   1   2
BRANCH   1  14
ATOM     14  C6  UNL     1     152.208 161.727 166.109  0.00  0.00    +0.000 C 
BRANCH  14  18
ATOM     15  C2  UNL     1     154.240 158.240 167.584  0.00  0.00    +0.000 A 
ATOM     16  C3  UNL     1     154.408 158.629 166.272  0.00  0.00    +0.000 A 
ATOM     17  C4  UNL     1     153.750 159.757 165.798  0.00  0.00    +0.000 A 
ATOM     18  C5  UNL     1     152.921 160.516 166.596  0.00  0.00    +0.000 A 
ATOM     19  C13 UNL     1     152.762 160.117 167.908  0.00  0.00    +0.000 A 
ATOM     20  C14 UNL     1     153.407 158.999 168.396  0.00  0.00    +0.000 A 
BRANCH  15  21
ATOM     21  O1  UNL     1     154.883 157.127 168.067  0.00  0.00    +0.000 OA
BRANCH  21  23
ATOM     22  F1  UNL     1     155.920 156.553 169.978  0.00  0.00    +0.000 F 
ATOM     23  C1  UNL     1     156.121 157.137 168.720  0.00  0.00    +0.000 C 
ATOM     24  F2  UNL     1     156.666 158.394 168.854  0.00  0.00    +0.000 F 
ATOM     25  F3  UNL     1     157.061 156.356 168.077  0.00  0.00    +0.000 F 
ENDBRANCH  21  23
ENDBRANCH  15  21
ENDBRANCH  14  18
ENDBRANCH   1  14
TORSDOF 6
ENDMDL
MODEL 2
REMARK VINA RESULT:      -6.2      2.227      3.110
REMARK  Name = ./3D_structures\o48_MMV688755_3D.pdb
REMARK  6 active torsions:
REMARK  status: ('A' for Active; 'I' for Inactive)
REMARK    1  A    between atoms: C1_2  and  O1_5
REMARK    2  A    between atoms: O1_5  and  C2_6
REMARK    3  A    between atoms: C5_9  and  C6_10
REMARK    4  A    between atoms: C6_10  and  O2_11
REMARK    5  A    between atoms: O2_11  and  C7_12
REMARK    6  A    between atoms: C10_17  and  N3_21
REMARK                            x       y       z     vdW  Elec       q    Type
REMARK                         _______ _______ _______ _____ _____    ______ ____
ROOT
ATOM      1  O2  UNL     1     148.784 161.798 168.868  0.00  0.00    +0.000 OA
ENDROOT
BRANCH   1   2
ATOM      2  C7  UNL     1     147.902 162.583 168.223  0.00  0.00    +0.000 C 
ATOM      3  C8  UNL     1     146.820 161.683 167.612  0.00  0.00    +0.000 C 
ATOM      4  O3  UNL     1     146.216 162.331 166.498  0.00  0.00    +0.000 OA
ATOM      5  C9  UNL     1     146.220 163.714 166.381  0.00  0.00    +0.000 A 
ATOM      6  N1  UNL     1     145.336 164.659 165.996  0.00  0.00    +0.000 NA
ATOM      7  C10 UNL     1     145.894 165.875 166.085  0.00  0.00    +0.000 A 
ATOM      8  C11 UNL     1     147.177 165.660 166.545  0.00  0.00    +0.000 A 
ATOM      9  N2  UNL     1     147.370 164.347 166.724  0.00  0.00    +0.000 N 
ATOM     10  C12 UNL     1     148.459 163.497 167.172  0.00  0.00    +0.000 C 
BRANCH   7  11
ATOM     11  N3  UNL     1     145.251 167.091 165.759  0.00  0.00    +0.000 N 
ATOM     12  O4  UNL     1     143.930 167.078 165.392  0.00  0.00    +0.000 OA
ATOM     13  O5  UNL     1     145.835 168.192 165.789  0.00  0.00    +0.000 OA
ENDBRANCH   7  11
ENDBRANCH   1   2
BRANCH   1  14
ATOM     14  C6  UNL     1     148.934 160.511 168.432  0.00  0.00    +0.000 C 
BRANCH  14  18
ATOM     15  C2  UNL     1     152.760 159.093 169.776  0.00  0.00    +0.000 A 
ATOM     16  C3  UNL     1     151.606 158.498 170.240  0.00  0.00    +0.000 A 
ATOM     17  C4  UNL     1     150.370 158.958 169.803  0.00  0.00    +0.000 A 
ATOM     18  C5  UNL     1     150.246 160.003 168.912  0.00  0.00    +0.000 A 
ATOM     19  C13 UNL     1     151.409 160.589 168.455  0.00  0.00    +0.000 A 
ATOM     20  C14 UNL     1     152.645 160.145 168.877  0.00  0.00    +0.000 A 
BRANCH  15  21
ATOM     21  O1  UNL     1     153.989 158.649 170.198  0.00  0.00    +0.000 OA
BRANCH  21  23
ATOM     22  F1  UNL     1     155.794 158.566 168.859  0.00  0.00    +0.000 F 
ATOM     23  C1  UNL     1     154.817 157.777 169.482  0.00  0.00    +0.000 C 
ATOM     24  F2  UNL     1     154.146 157.017 168.550  0.00  0.00    +0.000 F 
ATOM     25  F3  UNL     1     155.494 156.900 170.305  0.00  0.00    +0.000 F 
ENDBRANCH  21  23
ENDBRANCH  15  21
ENDBRANCH  14  18
ENDBRANCH   1  14
TORSDOF 6
ENDMDL
MODEL 3
REMARK VINA RESULT:      -6.0      1.228      1.572
REMARK  Name = ./3D_structures\o48_MMV688755_3D.pdb
REMARK  6 active torsions:
REMARK  status: ('A' for Active; 'I' for Inactive)
REMARK    1  A    between atoms: C1_2  and  O1_5
REMARK    2  A    between atoms: O1_5  and  C2_6
REMARK    3  A    between atoms: C5_9  and  C6_10
REMARK    4  A    between atoms: C6_10  and  O2_11
REMARK    5  A    between atoms: O2_11  and  C7_12
REMARK    6  A    between atoms: C10_17  and  N3_21
REMARK                            x       y       z     vdW  Elec       q    Type
REMARK                         _______ _______ _______ _____ _____    ______ ____
ROOT
ATOM      1  O2  UNL     1     152.488 162.582 166.326  0.00  0.00    +0.000 OA
ENDROOT
BRANCH   1   2
ATOM      2  C7  UNL     1     151.326 163.261 166.327  0.00  0.00    +0.000 C 
ATOM      3  C8  UNL     1     151.414 164.359 165.258  0.00  0.00    +0.000 C 
ATOM      4  O3  UNL     1     150.520 165.420 165.572  0.00  0.00    +0.000 OA
ATOM      5  C9  UNL     1     149.400 165.207 166.363  0.00  0.00    +0.000 A 
ATOM      6  N1  UNL     1     148.111 165.609 166.351  0.00  0.00    +0.000 NA
ATOM      7  C10 UNL     1     147.453 165.078 167.392  0.00  0.00    +0.000 A 
ATOM      8  C11 UNL     1     148.384 164.319 168.069  0.00  0.00    +0.000 A 
ATOM      9  N2  UNL     1     149.564 164.399 167.441  0.00  0.00    +0.000 N 
ATOM     10  C12 UNL     1     150.897 163.856 167.635  0.00  0.00    +0.000 C 
BRANCH   7  11
ATOM     11  N3  UNL     1     146.086 165.291 167.684  0.00  0.00    +0.000 N 
ATOM     12  O4  UNL     1     145.648 165.180 168.978  0.00  0.00    +0.000 OA
ATOM     13  O5  UNL     1     145.247 165.578 166.808  0.00  0.00    +0.000 OA
ENDBRANCH   7  11
ENDBRANCH   1   2
BRANCH   1  14
ATOM     14  C6  UNL     1     152.589 161.487 165.513  0.00  0.00    +0.000 C 
BRANCH  14  18
ATOM     15  C2  UNL     1     154.136 158.253 167.880  0.00  0.00    +0.000 A 
ATOM     16  C3  UNL     1     154.518 158.382 166.562  0.00  0.00    +0.000 A 
ATOM     17  C4  UNL     1     154.016 159.429 165.798  0.00  0.00    +0.000 A 
ATOM     18  C5  UNL     1     153.137 160.359 166.311  0.00  0.00    +0.000 A 
ATOM     19  C13 UNL     1     152.764 160.219 167.633  0.00  0.00    +0.000 A 
ATOM     20  C14 UNL     1     153.251 159.186 168.406  0.00  0.00    +0.000 A 
BRANCH  15  21
ATOM     21  O1  UNL     1     154.623 157.223 168.648  0.00  0.00    +0.000 OA
BRANCH  21  23
ATOM     22  F1  UNL     1     156.307 158.520 169.381  0.00  0.00    +0.000 F 
ATOM     23  C1  UNL     1     155.896 157.189 169.229  0.00  0.00    +0.000 C 
ATOM     24  F2  UNL     1     156.821 156.480 168.495  0.00  0.00    +0.000 F 
ATOM     25  F3  UNL     1     155.880 156.641 170.496  0.00  0.00    +0.000 F 
ENDBRANCH  21  23
ENDBRANCH  15  21
ENDBRANCH  14  18
ENDBRANCH   1  14
TORSDOF 6
ENDMDL
MODEL 4
REMARK VINA RESULT:      -5.9      4.491      5.137
REMARK  Name = ./3D_structures\o48_MMV688755_3D.pdb
REMARK  6 active torsions:
REMARK  status: ('A' for Active; 'I' for Inactive)
REMARK    1  A    between atoms: C1_2  and  O1_5
REMARK    2  A    between atoms: O1_5  and  C2_6
REMARK    3  A    between atoms: C5_9  and  C6_10
REMARK    4  A    between atoms: C6_10  and  O2_11
REMARK    5  A    between atoms: O2_11  and  C7_12
REMARK    6  A    between atoms: C10_17  and  N3_21
REMARK                            x       y       z     vdW  Elec       q    Type
REMARK                         _______ _______ _______ _____ _____    ______ ____
ROOT
ATOM      1  O2  UNL     1     146.809 160.243 168.429  0.00  0.00    +0.000 OA
ENDROOT
BRANCH   1   2
ATOM      2  C7  UNL     1     146.855 161.470 167.877  0.00  0.00    +0.000 C 
ATOM      3  C8  UNL     1     148.326 161.827 167.631  0.00  0.00    +0.000 C 
ATOM      4  O3  UNL     1     148.487 163.241 167.596  0.00  0.00    +0.000 OA
ATOM      5  C9  UNL     1     147.429 164.078 167.272  0.00  0.00    +0.000 A 
ATOM      6  N1  UNL     1     147.264 165.193 166.528  0.00  0.00    +0.000 NA
ATOM      7  C10 UNL     1     145.984 165.589 166.568  0.00  0.00    +0.000 A 
ATOM      8  C11 UNL     1     145.339 164.673 167.373  0.00  0.00    +0.000 A 
ATOM      9  N2  UNL     1     146.219 163.757 167.797  0.00  0.00    +0.000 N 
ATOM     10  C12 UNL     1     146.181 162.573 168.638  0.00  0.00    +0.000 C 
BRANCH   7  11
ATOM     11  N3  UNL     1     145.462 166.721 165.902  0.00  0.00    +0.000 N 
ATOM     12  O4  UNL     1     144.136 166.749 165.555  0.00  0.00    +0.000 OA
ATOM     13  O5  UNL     1     146.160 167.712 165.610  0.00  0.00    +0.000 OA
ENDBRANCH   7  11
ENDBRANCH   1   2
BRANCH   1  14
ATOM     14  C6  UNL     1     147.455 159.226 167.782  0.00  0.00    +0.000 C 
BRANCH  14  18
ATOM     15  C2  UNL     1     148.683 156.324 170.703  0.00  0.00    +0.000 A 
ATOM     16  C3  UNL     1     149.483 157.416 170.442  0.00  0.00    +0.000 A 
ATOM     17  C4  UNL     1     149.083 158.353 169.497  0.00  0.00    +0.000 A 
ATOM     18  C5  UNL     1     147.902 158.235 168.797  0.00  0.00    +0.000 A 
ATOM     19  C13 UNL     1     147.109 157.138 169.068  0.00  0.00    +0.000 A 
ATOM     20  C14 UNL     1     147.490 156.197 170.003  0.00  0.00    +0.000 A 
BRANCH  15  21
ATOM     21  O1  UNL     1     149.064 155.389 171.634  0.00  0.00    +0.000 OA
BRANCH  21  23
ATOM     22  F1  UNL     1     151.121 154.675 172.193  0.00  0.00    +0.000 F 
ATOM     23  C1  UNL     1     149.999 154.371 171.412  0.00  0.00    +0.000 C 
ATOM     24  F2  UNL     1     150.357 154.227 170.090  0.00  0.00    +0.000 F 
ATOM     25  F3  UNL     1     149.547 153.140 171.845  0.00  0.00    +0.000 F 
ENDBRANCH  21  23
ENDBRANCH  15  21
ENDBRANCH  14  18
ENDBRANCH   1  14
TORSDOF 6
ENDMDL
MODEL 5
REMARK VINA RESULT:      -5.7      1.348      1.978
REMARK  Name = ./3D_structures\o48_MMV688755_3D.pdb
REMARK  6 active torsions:
REMARK  status: ('A' for Active; 'I' for Inactive)
REMARK    1  A    between atoms: C1_2  and  O1_5
REMARK    2  A    between atoms: O1_5  and  C2_6
REMARK    3  A    between atoms: C5_9  and  C6_10
REMARK    4  A    between atoms: C6_10  and  O2_11
REMARK    5  A    between atoms: O2_11  and  C7_12
REMARK    6  A    between atoms: C10_17  and  N3_21
REMARK                            x       y       z     vdW  Elec       q    Type
REMARK                         _______ _______ _______ _____ _____    ______ ____
ROOT
ATOM      1  O2  UNL     1     151.263 162.099 168.637  0.00  0.00    +0.000 OA
ENDROOT
BRANCH   1   2
ATOM      2  C7  UNL     1     150.129 162.692 168.222  0.00  0.00    +0.000 C 
ATOM      3  C8  UNL     1     148.999 161.655 168.279  0.00  0.00    +0.000 C 
ATOM      4  O3  UNL     1     147.965 162.007 167.366  0.00  0.00    +0.000 OA
ATOM      5  C9  UNL     1     147.782 163.321 166.959  0.00  0.00    +0.000 A 
ATOM      6  N1  UNL     1     146.725 164.133 166.743  0.00  0.00    +0.000 NA
ATOM      7  C10 UNL     1     147.146 165.342 166.347  0.00  0.00    +0.000 A 
ATOM      8  C11 UNL     1     148.523 165.264 166.320  0.00  0.00    +0.000 A 
ATOM      9  N2  UNL     1     148.905 164.036 166.693  0.00  0.00    +0.000 N 
ATOM     10  C12 UNL     1     150.165 163.334 166.867  0.00  0.00    +0.000 C 
BRANCH   7  11
ATOM     11  N3  UNL     1     146.304 166.435 166.034  0.00  0.00    +0.000 N 
ATOM     12  O4  UNL     1     144.944 166.275 166.089  0.00  0.00    +0.000 OA
ATOM     13  O5  UNL     1     146.745 167.553 165.705  0.00  0.00    +0.000 OA
ENDBRANCH   7  11
ENDBRANCH   1   2
BRANCH   1  14
ATOM     14  C6  UNL     1     151.152 160.999 169.443  0.00  0.00    +0.000 C 
BRANCH  14  18
ATOM     15  C2  UNL     1     154.081 158.080 168.277  0.00  0.00    +0.000 A 
ATOM     16  C3  UNL     1     153.825 159.161 167.460  0.00  0.00    +0.000 A 
ATOM     17  C4  UNL     1     152.877 160.104 167.839  0.00  0.00    +0.000 A 
ATOM     18  C5  UNL     1     152.170 160.002 169.018  0.00  0.00    +0.000 A 
ATOM     19  C13 UNL     1     152.435 158.916 169.828  0.00  0.00    +0.000 A 
ATOM     20  C14 UNL     1     153.373 157.970 169.467  0.00  0.00    +0.000 A 
BRANCH  15  21
ATOM     21  O1  UNL     1     155.014 157.140 167.916  0.00  0.00    +0.000 OA
BRANCH  21  23
ATOM     22  F1  UNL     1     156.119 156.129 169.593  0.00  0.00    +0.000 F 
ATOM     23  C1  UNL     1     156.277 156.996 168.503  0.00  0.00    +0.000 C 
ATOM     24  F2  UNL     1     156.836 158.186 168.912  0.00  0.00    +0.000 F 
ATOM     25  F3  UNL     1     157.185 156.393 167.656  0.00  0.00    +0.000 F 
ENDBRANCH  21  23
ENDBRANCH  15  21
ENDBRANCH  14  18
ENDBRANCH   1  14
TORSDOF 6
ENDMDL
MODEL 6
REMARK VINA RESULT:      -5.7      8.597     10.307
REMARK  Name = ./3D_structures\o48_MMV688755_3D.pdb
REMARK  6 active torsions:
REMARK  status: ('A' for Active; 'I' for Inactive)
REMARK    1  A    between atoms: C1_2  and  O1_5
REMARK    2  A    between atoms: O1_5  and  C2_6
REMARK    3  A    between atoms: C5_9  and  C6_10
REMARK    4  A    between atoms: C6_10  and  O2_11
REMARK    5  A    between atoms: O2_11  and  C7_12
REMARK    6  A    between atoms: C10_17  and  N3_21
REMARK                            x       y       z     vdW  Elec       q    Type
REMARK                         _______ _______ _______ _____ _____    ______ ____
ROOT
ATOM      1  O2  UNL     1     157.798 157.344 164.095  0.00  0.00    +0.000 OA
ENDROOT
BRANCH   1   2
ATOM      2  C7  UNL     1     157.425 157.341 165.389  0.00  0.00    +0.000 C 
ATOM      3  C8  UNL     1     156.080 156.610 165.497  0.00  0.00    +0.000 C 
ATOM      4  O3  UNL     1     155.380 157.044 166.658  0.00  0.00    +0.000 OA
ATOM      5  C9  UNL     1     156.054 157.578 167.747  0.00  0.00    +0.000 A 
ATOM      6  N1  UNL     1     155.965 157.474 169.090  0.00  0.00    +0.000 NA
ATOM      7  C10 UNL     1     156.901 158.236 169.674  0.00  0.00    +0.000 A 
ATOM      8  C11 UNL     1     157.591 158.831 168.639  0.00  0.00    +0.000 A 
ATOM      9  N2  UNL     1     157.074 158.428 167.471  0.00  0.00    +0.000 N 
ATOM     10  C12 UNL     1     157.336 158.677 166.064  0.00  0.00    +0.000 C 
BRANCH   7  11
ATOM     11  N3  UNL     1     157.093 158.363 171.069  0.00  0.00    +0.000 N 
ATOM     12  O4  UNL     1     158.365 158.353 171.579  0.00  0.00    +0.000 OA
ATOM     13  O5  UNL     1     156.146 158.484 171.871  0.00  0.00    +0.000 OA
ENDBRANCH   7  11
ENDBRANCH   1   2
BRANCH   1  14
ATOM     14  C6  UNL     1     158.937 156.667 163.756  0.00  0.00    +0.000 C 
BRANCH  14  18
ATOM     15  C2  UNL     1     157.955 152.495 163.459  0.00  0.00    +0.000 A 
ATOM     16  C3  UNL     1     158.852 152.922 164.414  0.00  0.00    +0.000 A 
ATOM     17  C4  UNL     1     159.168 154.273 164.509  0.00  0.00    +0.000 A 
ATOM     18  C5  UNL     1     158.614 155.218 163.673  0.00  0.00    +0.000 A 
ATOM     19  C13 UNL     1     157.716 154.777 162.721  0.00  0.00    +0.000 A 
ATOM     20  C14 UNL     1     157.391 153.441 162.612  0.00  0.00    +0.000 A 
BRANCH  15  21
ATOM     21  O1  UNL     1     157.633 151.164 163.353  0.00  0.00    +0.000 OA
BRANCH  21  23
ATOM     22  F1  UNL     1     156.082 149.538 163.286  0.00  0.00    +0.000 F 
ATOM     23  C1  UNL     1     156.655 150.513 164.114  0.00  0.00    +0.000 C 
ATOM     24  F2  UNL     1     155.686 151.356 164.608  0.00  0.00    +0.000 F 
ATOM     25  F3  UNL     1     157.192 149.838 165.192  0.00  0.00    +0.000 F 
ENDBRANCH  21  23
ENDBRANCH  15  21
ENDBRANCH  14  18
ENDBRANCH   1  14
TORSDOF 6
ENDMDL
MODEL 7
REMARK VINA RESULT:      -5.7      9.863     12.421
REMARK  Name = ./3D_structures\o48_MMV688755_3D.pdb
REMARK  6 active torsions:
REMARK  status: ('A' for Active; 'I' for Inactive)
REMARK    1  A    between atoms: C1_2  and  O1_5
REMARK    2  A    between atoms: O1_5  and  C2_6
REMARK    3  A    between atoms: C5_9  and  C6_10
REMARK    4  A    between atoms: C6_10  and  O2_11
REMARK    5  A    between atoms: O2_11  and  C7_12
REMARK    6  A    between atoms: C10_17  and  N3_21
REMARK                            x       y       z     vdW  Elec       q    Type
REMARK                         _______ _______ _______ _____ _____    ______ ____
ROOT
ATOM      1  O2  UNL     1     159.237 156.235 165.296  0.00  0.00    +0.000 OA
ENDROOT
BRANCH   1   2
ATOM      2  C7  UNL     1     159.076 155.040 164.697  0.00  0.00    +0.000 C 
ATOM      3  C8  UNL     1     159.946 155.017 163.434  0.00  0.00    +0.000 C 
ATOM      4  O3  UNL     1     159.422 154.084 162.496  0.00  0.00    +0.000 OA
ATOM      5  C9  UNL     1     158.634 153.017 162.905  0.00  0.00    +0.000 A 
ATOM      6  N1  UNL     1     158.527 151.710 162.586  0.00  0.00    +0.000 NA
ATOM      7  C10 UNL     1     157.565 151.134 163.321  0.00  0.00    +0.000 A 
ATOM      8  C11 UNL     1     157.063 152.136 164.124  0.00  0.00    +0.000 A 
ATOM      9  N2  UNL     1     157.716 153.278 163.869  0.00  0.00    +0.000 N 
ATOM     10  C12 UNL     1     157.669 154.645 164.356  0.00  0.00    +0.000 C 
BRANCH   7  11
ATOM     11  N3  UNL     1     157.187 149.773 163.242  0.00  0.00    +0.000 N 
ATOM     12  O4  UNL     1     157.446 149.066 162.098  0.00  0.00    +0.000 OA
ATOM     13  O5  UNL     1     156.620 149.177 164.179  0.00  0.00    +0.000 OA
ENDBRANCH   7  11
ENDBRANCH   1   2
BRANCH   1  14
ATOM     14  C6  UNL     1     158.122 156.993 165.522  0.00  0.00    +0.000 C 
BRANCH  14  18
ATOM     15  C2  UNL     1     157.974 158.028 169.689  0.00  0.00    +0.000 A 
ATOM     16  C3  UNL     1     158.998 158.505 168.900  0.00  0.00    +0.000 A 
ATOM     17  C4  UNL     1     159.043 158.169 167.552  0.00  0.00    +0.000 A 
ATOM     18  C5  UNL     1     158.092 157.364 166.962  0.00  0.00    +0.000 A 
ATOM     19  C13 UNL     1     157.072 156.894 167.763  0.00  0.00    +0.000 A 
ATOM     20  C14 UNL     1     157.010 157.217 169.103  0.00  0.00    +0.000 A 
BRANCH  15  21
ATOM     21  O1  UNL     1     157.915 158.351 171.023  0.00  0.00    +0.000 OA
BRANCH  21  23
ATOM     22  F1  UNL     1     156.307 158.304 172.593  0.00  0.00    +0.000 F 
ATOM     23  C1  UNL     1     156.905 159.115 171.619  0.00  0.00    +0.000 C 
ATOM     24  F2  UNL     1     155.960 159.575 170.730  0.00  0.00    +0.000 F 
ATOM     25  F3  UNL     1     157.403 160.217 172.285  0.00  0.00    +0.000 F 
ENDBRANCH  21  23
ENDBRANCH  15  21
ENDBRANCH  14  18
ENDBRANCH   1  14
TORSDOF 6
ENDMDL
MODEL 8
REMARK VINA RESULT:      -5.6      9.065     12.258
REMARK  Name = ./3D_structures\o48_MMV688755_3D.pdb
REMARK  6 active torsions:
REMARK  status: ('A' for Active; 'I' for Inactive)
REMARK    1  A    between atoms: C1_2  and  O1_5
REMARK    2  A    between atoms: O1_5  and  C2_6
REMARK    3  A    between atoms: C5_9  and  C6_10
REMARK    4  A    between atoms: C6_10  and  O2_11
REMARK    5  A    between atoms: O2_11  and  C7_12
REMARK    6  A    between atoms: C10_17  and  N3_21
REMARK                            x       y       z     vdW  Elec       q    Type
REMARK                         _______ _______ _______ _____ _____    ______ ____
ROOT
ATOM      1  O2  UNL     1     158.504 157.019 164.689  0.00  0.00    +0.000 OA
ENDROOT
BRANCH   1   2
ATOM      2  C7  UNL     1     158.711 155.689 164.708  0.00  0.00    +0.000 C 
ATOM      3  C8  UNL     1     160.195 155.433 164.414  0.00  0.00    +0.000 C 
ATOM      4  O3  UNL     1     160.368 154.128 163.872  0.00  0.00    +0.000 OA
ATOM      5  C9  UNL     1     159.449 153.118 164.119  0.00  0.00    +0.000 A 
ATOM      6  N1  UNL     1     159.507 151.800 164.404  0.00  0.00    +0.000 NA
ATOM      7  C10 UNL     1     158.269 151.305 164.550  0.00  0.00    +0.000 A 
ATOM      8  C11 UNL     1     157.419 152.371 164.344  0.00  0.00    +0.000 A 
ATOM      9  N2  UNL     1     158.139 153.470 164.084  0.00  0.00    +0.000 N 
ATOM     10  C12 UNL     1     157.859 154.864 163.789  0.00  0.00    +0.000 C 
BRANCH   7  11
ATOM     11  N3  UNL     1     157.962 149.958 164.852  0.00  0.00    +0.000 N 
ATOM     12  O4  UNL     1     156.746 149.445 164.484  0.00  0.00    +0.000 OA
ATOM     13  O5  UNL     1     158.757 149.203 165.445  0.00  0.00    +0.000 OA
ENDBRANCH   7  11
ENDBRANCH   1   2
BRANCH   1  14
ATOM     14  C6  UNL     1     157.216 157.467 164.788  0.00  0.00    +0.000 C 
BRANCH  14  18
ATOM     15  C2  UNL     1     156.539 158.701 168.848  0.00  0.00    +0.000 A 
ATOM     16  C3  UNL     1     156.043 157.493 168.406  0.00  0.00    +0.000 A 
ATOM     17  C4  UNL     1     156.264 157.096 167.092  0.00  0.00    +0.000 A 
ATOM     18  C5  UNL     1     156.968 157.873 166.197  0.00  0.00    +0.000 A 
ATOM     19  C13 UNL     1     157.460 159.079 166.652  0.00  0.00    +0.000 A 
ATOM     20  C14 UNL     1     157.251 159.490 167.953  0.00  0.00    +0.000 A 
BRANCH  15  21
ATOM     21  O1  UNL     1     156.330 159.107 170.143  0.00  0.00    +0.000 OA
BRANCH  21  23
ATOM     22  F1  UNL     1     157.344 159.937 171.970  0.00  0.00    +0.000 F 
ATOM     23  C1  UNL     1     157.139 158.763 171.232  0.00  0.00    +0.000 C 
ATOM     24  F2  UNL     1     158.344 158.204 170.871  0.00  0.00    +0.000 F 
ATOM     25  F3  UNL     1     156.520 157.872 172.086  0.00  0.00    +0.000 F 
ENDBRANCH  21  23
ENDBRANCH  15  21
ENDBRANCH  14  18
ENDBRANCH   1  14
TORSDOF 6
ENDMDL
MODEL 9
REMARK VINA RESULT:      -5.4      2.214      2.797
REMARK  Name = ./3D_structures\o48_MMV688755_3D.pdb
REMARK  6 active torsions:
REMARK  status: ('A' for Active; 'I' for Inactive)
REMARK    1  A    between atoms: C1_2  and  O1_5
REMARK    2  A    between atoms: O1_5  and  C2_6
REMARK    3  A    between atoms: C5_9  and  C6_10
REMARK    4  A    between atoms: C6_10  and  O2_11
REMARK    5  A    between atoms: O2_11  and  C7_12
REMARK    6  A    between atoms: C10_17  and  N3_21
REMARK                            x       y       z     vdW  Elec       q    Type
REMARK                         _______ _______ _______ _____ _____    ______ ____
ROOT
ATOM      1  O2  UNL     1     152.507 161.645 167.763  0.00  0.00    +0.000 OA
ENDROOT
BRANCH   1   2
ATOM      2  C7  UNL     1     151.290 162.096 168.123  0.00  0.00    +0.000 C 
ATOM      3  C8  UNL     1     150.740 161.164 169.211  0.00  0.00    +0.000 C 
ATOM      4  O3  UNL     1     149.318 161.220 169.229  0.00  0.00    +0.000 OA
ATOM      5  C9  UNL     1     148.635 162.329 168.750  0.00  0.00    +0.000 A 
ATOM      6  N1  UNL     1     147.560 163.050 169.135  0.00  0.00    +0.000 NA
ATOM      7  C10 UNL     1     147.341 164.049 168.269  0.00  0.00    +0.000 A 
ATOM      8  C11 UNL     1     148.327 163.932 167.312  0.00  0.00    +0.000 A 
ATOM      9  N2  UNL     1     149.111 162.888 167.608  0.00  0.00    +0.000 N 
ATOM     10  C12 UNL     1     150.280 162.253 167.025  0.00  0.00    +0.000 C 
BRANCH   7  11
ATOM     11  N3  UNL     1     146.296 164.997 168.368  0.00  0.00    +0.000 N 
ATOM     12  O4  UNL     1     145.618 165.132 169.552  0.00  0.00    +0.000 OA
ATOM     13  O5  UNL     1     145.955 165.726 167.417  0.00  0.00    +0.000 OA
ENDBRANCH   7  11
ENDBRANCH   1   2
BRANCH   1  14
ATOM     14  C6  UNL     1     152.581 160.425 167.149  0.00  0.00    +0.000 C 
BRANCH  14  18
ATOM     15  C2  UNL     1     156.152 158.490 168.548  0.00  0.00    +0.000 A 
ATOM     16  C3  UNL     1     155.735 158.302 167.248  0.00  0.00    +0.000 A 
ATOM     17  C4  UNL     1     154.579 158.930 166.798  0.00  0.00    +0.000 A 
ATOM     18  C5  UNL     1     153.820 159.744 167.610  0.00  0.00    +0.000 A 
ATOM     19  C13 UNL     1     154.249 159.924 168.909  0.00  0.00    +0.000 A 
ATOM     20  C14 UNL     1     155.394 159.310 169.374  0.00  0.00    +0.000 A 
BRANCH  15  21
ATOM     21  O1  UNL     1     157.292 157.877 169.008  0.00  0.00    +0.000 OA
BRANCH  21  23
ATOM     22  F1  UNL     1     158.256 158.336 170.986  0.00  0.00    +0.000 F 
ATOM     23  C1  UNL     1     158.373 158.536 169.604  0.00  0.00    +0.000 C 
ATOM     24  F2  UNL     1     158.428 159.881 169.315  0.00  0.00    +0.000 F 
ATOM     25  F3  UNL     1     159.588 157.994 169.235  0.00  0.00    +0.000 F 
ENDBRANCH  21  23
ENDBRANCH  15  21
ENDBRANCH  14  18
ENDBRANCH   1  14
TORSDOF 6
ENDMDL
