MODEL 1
REMARK VINA RESULT:      -7.2      0.000      0.000
REMARK  Name = ./3D_structures\o49_MMV020752_3D.pdb
REMARK  5 active torsions:
REMARK  status: ('A' for Active; 'I' for Inactive)
REMARK    1  A    between atoms: C1_1  and  N1_2
REMARK    2  A    between atoms: N2_5  and  C6_8
REMARK    3  A    between atoms: C10_13  and  C13_17
REMARK    4  A    between atoms: C17_22  and  C20_26
REMARK    5  A    between atoms: C23_29  and  O1_30
REMARK                            x       y       z     vdW  Elec       q    Type
REMARK                         _______ _______ _______ _____ _____    ______ ____
ROOT
ATOM      1  C13 UNL     1     153.484 159.164 167.875  0.00  0.00    +0.000 A 
ATOM      2  C14 UNL     1     153.152 158.656 169.113  0.00  0.00    +0.000 A 
ATOM      3  C15 UNL     1     152.138 159.170 169.892  0.00  0.00    +0.000 A 
ATOM      4  C16 UNL     1     151.410 160.253 169.408  0.00  0.00    +0.000 A 
ATOM      5  N5  UNL     1     150.387 160.979 169.889  0.00  0.00    +0.000 N 
ATOM      6  C17 UNL     1     150.032 161.943 169.021  0.00  0.00    +0.000 A 
ATOM      7  N6  UNL     1     150.852 161.819 167.967  0.00  0.00    +0.000 NA
ATOM      8  C18 UNL     1     151.713 160.788 168.174  0.00  0.00    +0.000 A 
ATOM      9  C19 UNL     1     152.746 160.237 167.422  0.00  0.00    +0.000 A 
ATOM     10  H18 UNL     1     149.946 160.793 170.825  0.00  0.00    +0.000 HD
ENDROOT
BRANCH   1  16
ATOM     11  C6  UNL     1     157.850 156.334 164.845  0.00  0.00    +0.000 A 
ATOM     12  C7  UNL     1     158.019 157.593 164.255  0.00  0.00    +0.000 A 
ATOM     13  C8  UNL     1     157.199 158.622 164.649  0.00  0.00    +0.000 A 
ATOM     14  C9  UNL     1     156.218 158.478 165.600  0.00  0.00    +0.000 A 
ATOM     15  N3  UNL     1     155.305 159.263 166.166  0.00  0.00    +0.000 N 
ATOM     16  C10 UNL     1     154.571 158.597 167.072  0.00  0.00    +0.000 A 
ATOM     17  N4  UNL     1     155.040 157.339 167.077  0.00  0.00    +0.000 NA
ATOM     18  C11 UNL     1     156.055 157.218 166.187  0.00  0.00    +0.000 A 
ATOM     19  C12 UNL     1     156.874 156.183 165.794  0.00  0.00    +0.000 A 
ATOM     20  H14 UNL     1     155.173 160.284 165.934  0.00  0.00    +0.000 HD
BRANCH  11  25
ATOM     21  C1  UNL     1     160.821 152.129 162.834  0.00  0.00    +0.000 C 
ATOM     22  N1  UNL     1     160.433 153.037 163.871  0.00  0.00    +0.000 NA
ATOM     23  C2  UNL     1     160.730 154.401 163.497  0.00  0.00    +0.000 C 
ATOM     24  C3  UNL     1     160.150 155.388 164.498  0.00  0.00    +0.000 C 
ATOM     25  N2  UNL     1     158.700 155.251 164.436  0.00  0.00    +0.000 N 
ATOM     26  C4  UNL     1     158.169 154.007 163.960  0.00  0.00    +0.000 C 
ATOM     27  C5  UNL     1     159.090 152.861 164.331  0.00  0.00    +0.000 C 
ENDBRANCH  11  25
ENDBRANCH   1  16
BRANCH   6  28
ATOM     28  C20 UNL     1     148.960 162.915 169.220  0.00  0.00    +0.000 A 
ATOM     29  C21 UNL     1     149.159 164.080 169.931  0.00  0.00    +0.000 A 
ATOM     30  C22 UNL     1     148.142 165.009 170.124  0.00  0.00    +0.000 A 
ATOM     31  C23 UNL     1     146.886 164.783 169.600  0.00  0.00    +0.000 A 
ATOM     32  C24 UNL     1     146.682 163.617 168.888  0.00  0.00    +0.000 A 
ATOM     33  C25 UNL     1     147.701 162.701 168.702  0.00  0.00    +0.000 A 
BRANCH  31  34
ATOM     34  O1  UNL     1     145.873 165.724 169.802  0.00  0.00    +0.000 OA
ATOM     35  H22 UNL     1     145.025 165.458 170.301  0.00  0.00    +0.000 HD
ENDBRANCH  31  34
ENDBRANCH   6  28
TORSDOF 4
ENDMDL
MODEL 2
REMARK VINA RESULT:      -7.2      2.116      2.514
REMARK  Name = ./3D_structures\o49_MMV020752_3D.pdb
REMARK  5 active torsions:
REMARK  status: ('A' for Active; 'I' for Inactive)
REMARK    1  A    between atoms: C1_1  and  N1_2
REMARK    2  A    between atoms: N2_5  and  C6_8
REMARK    3  A    between atoms: C10_13  and  C13_17
REMARK    4  A    between atoms: C17_22  and  C20_26
REMARK    5  A    between atoms: C23_29  and  O1_30
REMARK                            x       y       z     vdW  Elec       q    Type
REMARK                         _______ _______ _______ _____ _____    ______ ____
ROOT
ATOM      1  C13 UNL     1     154.544 158.926 166.756  0.00  0.00    +0.000 A 
ATOM      2  C14 UNL     1     153.903 158.692 167.955  0.00  0.00    +0.000 A 
ATOM      3  C15 UNL     1     152.881 159.485 168.431  0.00  0.00    +0.000 A 
ATOM      4  C16 UNL     1     152.474 160.575 167.670  0.00  0.00    +0.000 A 
ATOM      5  N5  UNL     1     151.539 161.528 167.828  0.00  0.00    +0.000 N 
ATOM      6  C17 UNL     1     151.538 162.378 166.786  0.00  0.00    +0.000 A 
ATOM      7  N6  UNL     1     152.496 161.949 165.951  0.00  0.00    +0.000 NA
ATOM      8  C18 UNL     1     153.091 160.842 166.466  0.00  0.00    +0.000 A 
ATOM      9  C19 UNL     1     154.119 160.013 166.024  0.00  0.00    +0.000 A 
ATOM     10  H18 UNL     1     150.909 161.573 168.668  0.00  0.00    +0.000 HD
ENDROOT
BRANCH   1  16
ATOM     11  C6  UNL     1     158.607 154.975 164.723  0.00  0.00    +0.000 A 
ATOM     12  C7  UNL     1     159.492 156.039 164.936  0.00  0.00    +0.000 A 
ATOM     13  C8  UNL     1     158.996 157.223 165.422  0.00  0.00    +0.000 A 
ATOM     14  C9  UNL     1     157.667 157.418 165.713  0.00  0.00    +0.000 A 
ATOM     15  N3  UNL     1     156.921 158.416 166.179  0.00  0.00    +0.000 N 
ATOM     16  C10 UNL     1     155.628 158.065 166.279  0.00  0.00    +0.000 A 
ATOM     17  N4  UNL     1     155.557 156.792 165.857  0.00  0.00    +0.000 NA
ATOM     18  C11 UNL     1     156.787 156.351 165.499  0.00  0.00    +0.000 A 
ATOM     19  C12 UNL     1     157.280 155.161 165.011  0.00  0.00    +0.000 A 
ATOM     20  H14 UNL     1     157.296 159.368 166.440  0.00  0.00    +0.000 HD
BRANCH  11  25
ATOM     21  C1  UNL     1     160.128 150.173 162.448  0.00  0.00    +0.000 C 
ATOM     22  N1  UNL     1     160.244 151.219 163.419  0.00  0.00    +0.000 NA
ATOM     23  C2  UNL     1     160.566 152.476 162.783  0.00  0.00    +0.000 C 
ATOM     24  C3  UNL     1     160.502 153.630 163.772  0.00  0.00    +0.000 C 
ATOM     25  N2  UNL     1     159.116 153.733 164.211  0.00  0.00    +0.000 N 
ATOM     26  C4  UNL     1     158.297 152.560 164.114  0.00  0.00    +0.000 C 
ATOM     27  C5  UNL     1     159.135 151.312 164.316  0.00  0.00    +0.000 C 
ENDBRANCH  11  25
ENDBRANCH   1  16
BRANCH   6  28
ATOM     28  C20 UNL     1     150.654 163.530 166.629  0.00  0.00    +0.000 A 
ATOM     29  C21 UNL     1     149.440 163.608 167.278  0.00  0.00    +0.000 A 
ATOM     30  C22 UNL     1     148.594 164.704 167.132  0.00  0.00    +0.000 A 
ATOM     31  C23 UNL     1     148.956 165.757 166.319  0.00  0.00    +0.000 A 
ATOM     32  C24 UNL     1     150.172 165.683 165.666  0.00  0.00    +0.000 A 
ATOM     33  C25 UNL     1     151.004 164.589 165.819  0.00  0.00    +0.000 A 
BRANCH  31  34
ATOM     34  O1  UNL     1     148.098 166.850 166.180  0.00  0.00    +0.000 OA
ATOM     35  H22 UNL     1     147.253 166.765 165.615  0.00  0.00    +0.000 HD
ENDBRANCH  31  34
ENDBRANCH   6  28
TORSDOF 4
ENDMDL
MODEL 3
REMARK VINA RESULT:      -7.1      4.241     12.157
REMARK  Name = ./3D_structures\o49_MMV020752_3D.pdb
REMARK  5 active torsions:
REMARK  status: ('A' for Active; 'I' for Inactive)
REMARK    1  A    between atoms: C1_1  and  N1_2
REMARK    2  A    between atoms: N2_5  and  C6_8
REMARK    3  A    between atoms: C10_13  and  C13_17
REMARK    4  A    between atoms: C17_22  and  C20_26
REMARK    5  A    between atoms: C23_29  and  O1_30
REMARK                            x       y       z     vdW  Elec       q    Type
REMARK                         _______ _______ _______ _____ _____    ______ ____
ROOT
ATOM      1  C13 UNL     1     153.913 159.113 168.028  0.00  0.00    +0.000 A 
ATOM      2  C14 UNL     1     154.294 158.366 169.123  0.00  0.00    +0.000 A 
ATOM      3  C15 UNL     1     155.336 157.464 169.095  0.00  0.00    +0.000 A 
ATOM      4  C16 UNL     1     156.041 157.298 167.907  0.00  0.00    +0.000 A 
ATOM      5  N5  UNL     1     157.079 156.529 167.538  0.00  0.00    +0.000 N 
ATOM      6  C17 UNL     1     157.397 156.738 166.248  0.00  0.00    +0.000 A 
ATOM      7  N6  UNL     1     156.537 157.662 165.795  0.00  0.00    +0.000 NA
ATOM      8  C18 UNL     1     155.689 158.027 166.791  0.00  0.00    +0.000 A 
ATOM      9  C19 UNL     1     154.629 158.927 166.866  0.00  0.00    +0.000 A 
ATOM     10  H18 UNL     1     157.556 155.862 168.195  0.00  0.00    +0.000 HD
ENDROOT
BRANCH   1  16
ATOM     11  C6  UNL     1     149.397 163.083 167.718  0.00  0.00    +0.000 A 
ATOM     12  C7  UNL     1     149.324 162.847 169.096  0.00  0.00    +0.000 A 
ATOM     13  C8  UNL     1     150.207 161.960 169.661  0.00  0.00    +0.000 A 
ATOM     14  C9  UNL     1     151.164 161.290 168.938  0.00  0.00    +0.000 A 
ATOM     15  N3  UNL     1     152.122 160.404 169.200  0.00  0.00    +0.000 N 
ATOM     16  C10 UNL     1     152.798 160.062 168.090  0.00  0.00    +0.000 A 
ATOM     17  N4  UNL     1     152.242 160.760 167.088  0.00  0.00    +0.000 NA
ATOM     18  C11 UNL     1     151.232 161.530 167.561  0.00  0.00    +0.000 A 
ATOM     19  C12 UNL     1     150.349 162.419 166.990  0.00  0.00    +0.000 A 
ATOM     20  H14 UNL     1     152.328 160.017 170.160  0.00  0.00    +0.000 HD
BRANCH  11  25
ATOM     21  C1  UNL     1     145.598 166.650 165.874  0.00  0.00    +0.000 C 
ATOM     22  N1  UNL     1     146.685 165.736 165.693  0.00  0.00    +0.000 NA
ATOM     23  C2  UNL     1     147.867 166.202 166.382  0.00  0.00    +0.000 C 
ATOM     24  C3  UNL     1     148.969 165.153 166.362  0.00  0.00    +0.000 C 
ATOM     25  N2  UNL     1     148.476 164.008 167.117  0.00  0.00    +0.000 N 
ATOM     26  C4  UNL     1     147.055 163.845 167.229  0.00  0.00    +0.000 C 
ATOM     27  C5  UNL     1     146.363 164.375 165.988  0.00  0.00    +0.000 C 
ENDBRANCH  11  25
ENDBRANCH   1  16
BRANCH   6  28
ATOM     28  C20 UNL     1     158.472 156.071 165.518  0.00  0.00    +0.000 A 
ATOM     29  C21 UNL     1     158.324 154.799 165.007  0.00  0.00    +0.000 A 
ATOM     30  C22 UNL     1     159.345 154.159 164.311  0.00  0.00    +0.000 A 
ATOM     31  C23 UNL     1     160.553 154.794 164.112  0.00  0.00    +0.000 A 
ATOM     32  C24 UNL     1     160.706 156.069 164.621  0.00  0.00    +0.000 A 
ATOM     33  C25 UNL     1     159.684 156.695 165.312  0.00  0.00    +0.000 A 
BRANCH  31  34
ATOM     34  O1  UNL     1     161.570 154.141 163.412  0.00  0.00    +0.000 OA
ATOM     35  H22 UNL     1     161.746 153.150 163.577  0.00  0.00    +0.000 HD
ENDBRANCH  31  34
ENDBRANCH   6  28
TORSDOF 4
ENDMDL
MODEL 4
REMARK VINA RESULT:      -7.0      1.918      2.398
REMARK  Name = ./3D_structures\o49_MMV020752_3D.pdb
REMARK  5 active torsions:
REMARK  status: ('A' for Active; 'I' for Inactive)
REMARK    1  A    between atoms: C1_1  and  N1_2
REMARK    2  A    between atoms: N2_5  and  C6_8
REMARK    3  A    between atoms: C10_13  and  C13_17
REMARK    4  A    between atoms: C17_22  and  C20_26
REMARK    5  A    between atoms: C23_29  and  O1_30
REMARK                            x       y       z     vdW  Elec       q    Type
REMARK                         _______ _______ _______ _____ _____    ______ ____
ROOT
ATOM      1  C13 UNL     1     152.517 160.083 168.123  0.00  0.00    +0.000 A 
ATOM      2  C14 UNL     1     151.850 160.000 169.328  0.00  0.00    +0.000 A 
ATOM      3  C15 UNL     1     150.759 160.781 169.640  0.00  0.00    +0.000 A 
ATOM      4  C16 UNL     1     150.303 161.698 168.698  0.00  0.00    +0.000 A 
ATOM      5  N5  UNL     1     149.299 162.590 168.674  0.00  0.00    +0.000 N 
ATOM      6  C17 UNL     1     149.276 163.256 167.506  0.00  0.00    +0.000 A 
ATOM      7  N6  UNL     1     150.292 162.771 166.777  0.00  0.00    +0.000 NA
ATOM      8  C18 UNL     1     150.945 161.810 167.483  0.00  0.00    +0.000 A 
ATOM      9  C19 UNL     1     152.044 161.001 167.210  0.00  0.00    +0.000 A 
ATOM     10  H18 UNL     1     148.636 162.725 169.478  0.00  0.00    +0.000 HD
ENDROOT
BRANCH   1  16
ATOM     11  C6  UNL     1     157.156 156.689 166.330  0.00  0.00    +0.000 A 
ATOM     12  C7  UNL     1     157.376 156.569 167.707  0.00  0.00    +0.000 A 
ATOM     13  C8  UNL     1     156.522 157.210 168.571  0.00  0.00    +0.000 A 
ATOM     14  C9  UNL     1     155.456 157.967 168.150  0.00  0.00    +0.000 A 
ATOM     15  N3  UNL     1     154.492 158.678 168.729  0.00  0.00    +0.000 N 
ATOM     16  C10 UNL     1     153.677 159.240 167.822  0.00  0.00    +0.000 A 
ATOM     17  N4  UNL     1     154.146 158.868 166.620  0.00  0.00    +0.000 NA
ATOM     18  C11 UNL     1     155.240 158.083 166.771  0.00  0.00    +0.000 A 
ATOM     19  C12 UNL     1     156.094 157.442 165.901  0.00  0.00    +0.000 A 
ATOM     20  H14 UNL     1     154.381 158.788 169.773  0.00  0.00    +0.000 HD
BRANCH  11  25
ATOM     21  C1  UNL     1     160.188 154.166 162.458  0.00  0.00    +0.000 C 
ATOM     22  N1  UNL     1     159.924 154.583 163.802  0.00  0.00    +0.000 NA
ATOM     23  C2  UNL     1     159.891 156.025 163.896  0.00  0.00    +0.000 C 
ATOM     24  C3  UNL     1     159.422 156.480 165.270  0.00  0.00    +0.000 C 
ATOM     25  N2  UNL     1     158.045 156.025 165.418  0.00  0.00    +0.000 N 
ATOM     26  C4  UNL     1     157.625 154.903 164.630  0.00  0.00    +0.000 C 
ATOM     27  C5  UNL     1     158.786 153.955 164.398  0.00  0.00    +0.000 C 
ENDBRANCH  11  25
ENDBRANCH   1  16
BRANCH   6  28
ATOM     28  C20 UNL     1     148.320 164.297 167.138  0.00  0.00    +0.000 A 
ATOM     29  C21 UNL     1     148.699 165.413 166.421  0.00  0.00    +0.000 A 
ATOM     30  C22 UNL     1     147.792 166.407 166.069  0.00  0.00    +0.000 A 
ATOM     31  C23 UNL     1     146.467 166.300 166.435  0.00  0.00    +0.000 A 
ATOM     32  C24 UNL     1     146.082 165.184 167.154  0.00  0.00    +0.000 A 
ATOM     33  C25 UNL     1     146.992 164.202 167.498  0.00  0.00    +0.000 A 
BRANCH  31  34
ATOM     34  O1  UNL     1     145.567 167.306 166.076  0.00  0.00    +0.000 OA
ATOM     35  H22 UNL     1     145.891 168.109 165.538  0.00  0.00    +0.000 HD
ENDBRANCH  31  34
ENDBRANCH   6  28
TORSDOF 4
ENDMDL
MODEL 5
REMARK VINA RESULT:      -6.8      3.104      4.423
REMARK  Name = ./3D_structures\o49_MMV020752_3D.pdb
REMARK  5 active torsions:
REMARK  status: ('A' for Active; 'I' for Inactive)
REMARK    1  A    between atoms: C1_1  and  N1_2
REMARK    2  A    between atoms: N2_5  and  C6_8
REMARK    3  A    between atoms: C10_13  and  C13_17
REMARK    4  A    between atoms: C17_22  and  C20_26
REMARK    5  A    between atoms: C23_29  and  O1_30
REMARK                            x       y       z     vdW  Elec       q    Type
REMARK                         _______ _______ _______ _____ _____    ______ ____
ROOT
ATOM      1  C13 UNL     1     151.273 160.805 168.193  0.00  0.00    +0.000 A 
ATOM      2  C14 UNL     1     150.167 160.146 168.689  0.00  0.00    +0.000 A 
ATOM      3  C15 UNL     1     148.886 160.643 168.590  0.00  0.00    +0.000 A 
ATOM      4  C16 UNL     1     148.693 161.868 167.958  0.00  0.00    +0.000 A 
ATOM      5  N5  UNL     1     147.613 162.623 167.695  0.00  0.00    +0.000 N 
ATOM      6  C17 UNL     1     147.960 163.749 167.047  0.00  0.00    +0.000 A 
ATOM      7  N6  UNL     1     149.293 163.701 166.899  0.00  0.00    +0.000 NA
ATOM      8  C18 UNL     1     149.774 162.556 167.450  0.00  0.00    +0.000 A 
ATOM      9  C19 UNL     1     151.051 162.016 167.573  0.00  0.00    +0.000 A 
ATOM     10  H18 UNL     1     146.640 162.341 167.973  0.00  0.00    +0.000 HD
ENDROOT
BRANCH   1  16
ATOM     11  C6  UNL     1     156.928 158.739 168.180  0.00  0.00    +0.000 A 
ATOM     12  C7  UNL     1     156.569 158.252 169.442  0.00  0.00    +0.000 A 
ATOM     13  C8  UNL     1     155.299 158.492 169.906  0.00  0.00    +0.000 A 
ATOM     14  C9  UNL     1     154.357 159.188 169.189  0.00  0.00    +0.000 A 
ATOM     15  N3  UNL     1     153.093 159.563 169.370  0.00  0.00    +0.000 N 
ATOM     16  C10 UNL     1     152.623 160.250 168.317  0.00  0.00    +0.000 A 
ATOM     17  N4  UNL     1     153.633 160.312 167.434  0.00  0.00    +0.000 NA
ATOM     18  C11 UNL     1     154.721 159.672 167.926  0.00  0.00    +0.000 A 
ATOM     19  C12 UNL     1     155.994 159.434 167.458  0.00  0.00    +0.000 A 
ATOM     20  H14 UNL     1     152.528 159.347 170.235  0.00  0.00    +0.000 HD
BRANCH  11  25
ATOM     21  C1  UNL     1     162.102 157.475 166.700  0.00  0.00    +0.000 C 
ATOM     22  N1  UNL     1     160.900 158.247 166.606  0.00  0.00    +0.000 NA
ATOM     23  C2  UNL     1     159.788 157.419 166.198  0.00  0.00    +0.000 C 
ATOM     24  C3  UNL     1     158.472 158.178 166.281  0.00  0.00    +0.000 C 
ATOM     25  N2  UNL     1     158.255 158.495 167.687  0.00  0.00    +0.000 N 
ATOM     26  C4  UNL     1     159.405 158.556 168.541  0.00  0.00    +0.000 C 
ATOM     27  C5  UNL     1     160.617 159.035 167.765  0.00  0.00    +0.000 C 
ENDBRANCH  11  25
ENDBRANCH   1  16
BRANCH   6  28
ATOM     28  C20 UNL     1     147.041 164.796 166.608  0.00  0.00    +0.000 A 
ATOM     29  C21 UNL     1     145.673 164.632 166.663  0.00  0.00    +0.000 A 
ATOM     30  C22 UNL     1     144.793 165.626 166.246  0.00  0.00    +0.000 A 
ATOM     31  C23 UNL     1     145.277 166.821 165.756  0.00  0.00    +0.000 A 
ATOM     32  C24 UNL     1     146.648 166.990 165.699  0.00  0.00    +0.000 A 
ATOM     33  C25 UNL     1     147.512 165.995 166.116  0.00  0.00    +0.000 A 
BRANCH  31  34
ATOM     34  O1  UNL     1     144.383 167.810 165.340  0.00  0.00    +0.000 OA
ATOM     35  H22 UNL     1     143.729 168.217 166.008  0.00  0.00    +0.000 HD
ENDBRANCH  31  34
ENDBRANCH   6  28
TORSDOF 4
ENDMDL
MODEL 6
REMARK VINA RESULT:      -6.7      4.609     12.271
REMARK  Name = ./3D_structures\o49_MMV020752_3D.pdb
REMARK  5 active torsions:
REMARK  status: ('A' for Active; 'I' for Inactive)
REMARK    1  A    between atoms: C1_1  and  N1_2
REMARK    2  A    between atoms: N2_5  and  C6_8
REMARK    3  A    between atoms: C10_13  and  C13_17
REMARK    4  A    between atoms: C17_22  and  C20_26
REMARK    5  A    between atoms: C23_29  and  O1_30
REMARK                            x       y       z     vdW  Elec       q    Type
REMARK                         _______ _______ _______ _____ _____    ______ ____
ROOT
ATOM      1  C13 UNL     1     154.936 159.021 166.679  0.00  0.00    +0.000 A 
ATOM      2  C14 UNL     1     154.821 157.783 166.081  0.00  0.00    +0.000 A 
ATOM      3  C15 UNL     1     155.905 156.992 165.769  0.00  0.00    +0.000 A 
ATOM      4  C16 UNL     1     157.180 157.460 166.071  0.00  0.00    +0.000 A 
ATOM      5  N5  UNL     1     158.419 156.965 165.910  0.00  0.00    +0.000 N 
ATOM      6  C17 UNL     1     159.344 157.822 166.376  0.00  0.00    +0.000 A 
ATOM      7  N6  UNL     1     158.670 158.884 166.842  0.00  0.00    +0.000 NA
ATOM      8  C18 UNL     1     157.336 158.693 166.669  0.00  0.00    +0.000 A 
ATOM      9  C19 UNL     1     156.212 159.458 166.966  0.00  0.00    +0.000 A 
ATOM     10  H18 UNL     1     158.605 156.027 165.474  0.00  0.00    +0.000 HD
ENDROOT
BRANCH   1  16
ATOM     11  C6  UNL     1     150.187 162.636 167.469  0.00  0.00    +0.000 A 
ATOM     12  C7  UNL     1     150.100 161.966 168.695  0.00  0.00    +0.000 A 
ATOM     13  C8  UNL     1     151.024 160.992 168.982  0.00  0.00    +0.000 A 
ATOM     14  C9  UNL     1     152.037 160.641 168.123  0.00  0.00    +0.000 A 
ATOM     15  N3  UNL     1     153.043 159.771 168.127  0.00  0.00    +0.000 N 
ATOM     16  C10 UNL     1     153.763 159.839 166.995  0.00  0.00    +0.000 A 
ATOM     17  N4  UNL     1     153.186 160.793 166.246  0.00  0.00    +0.000 NA
ATOM     18  C11 UNL     1     152.120 161.315 166.899  0.00  0.00    +0.000 A 
ATOM     19  C12 UNL     1     151.194 162.292 166.606  0.00  0.00    +0.000 A 
ATOM     20  H14 UNL     1     153.252 159.107 168.921  0.00  0.00    +0.000 HD
BRANCH  11  25
ATOM     21  C1  UNL     1     146.655 166.533 165.768  0.00  0.00    +0.000 C 
ATOM     22  N1  UNL     1     147.324 165.770 166.778  0.00  0.00    +0.000 NA
ATOM     23  C2  UNL     1     146.992 164.368 166.667  0.00  0.00    +0.000 C 
ATOM     24  C3  UNL     1     147.841 163.521 167.603  0.00  0.00    +0.000 C 
ATOM     25  N2  UNL     1     149.223 163.655 167.158  0.00  0.00    +0.000 N 
ATOM     26  C4  UNL     1     149.572 164.828 166.410  0.00  0.00    +0.000 C 
ATOM     27  C5  UNL     1     148.732 166.009 166.857  0.00  0.00    +0.000 C 
ENDBRANCH  11  25
ENDBRANCH   1  16
BRANCH   6  28
ATOM     28  C20 UNL     1     160.788 157.607 166.360  0.00  0.00    +0.000 A 
ATOM     29  C21 UNL     1     161.429 157.054 165.271  0.00  0.00    +0.000 A 
ATOM     30  C22 UNL     1     162.804 156.847 165.251  0.00  0.00    +0.000 A 
ATOM     31  C23 UNL     1     163.575 157.195 166.340  0.00  0.00    +0.000 A 
ATOM     32  C24 UNL     1     162.938 157.750 167.434  0.00  0.00    +0.000 A 
ATOM     33  C25 UNL     1     161.570 157.951 167.442  0.00  0.00    +0.000 A 
BRANCH  31  34
ATOM     34  O1  UNL     1     164.955 156.982 166.307  0.00  0.00    +0.000 OA
ATOM     35  H22 UNL     1     165.503 157.066 167.163  0.00  0.00    +0.000 HD
ENDBRANCH  31  34
ENDBRANCH   6  28
TORSDOF 4
ENDMDL
MODEL 7
REMARK VINA RESULT:      -6.7      4.160     12.213
REMARK  Name = ./3D_structures\o49_MMV020752_3D.pdb
REMARK  5 active torsions:
REMARK  status: ('A' for Active; 'I' for Inactive)
REMARK    1  A    between atoms: C1_1  and  N1_2
REMARK    2  A    between atoms: N2_5  and  C6_8
REMARK    3  A    between atoms: C10_13  and  C13_17
REMARK    4  A    between atoms: C17_22  and  C20_26
REMARK    5  A    between atoms: C23_29  and  O1_30
REMARK                            x       y       z     vdW  Elec       q    Type
REMARK                         _______ _______ _______ _____ _____    ______ ____
ROOT
ATOM      1  C13 UNL     1     155.225 158.695 167.773  0.00  0.00    +0.000 A 
ATOM      2  C14 UNL     1     156.475 158.794 168.347  0.00  0.00    +0.000 A 
ATOM      3  C15 UNL     1     157.561 158.061 167.921  0.00  0.00    +0.000 A 
ATOM      4  C16 UNL     1     157.393 157.176 166.860  0.00  0.00    +0.000 A 
ATOM      5  N5  UNL     1     158.211 156.332 166.210  0.00  0.00    +0.000 N 
ATOM      6  C17 UNL     1     157.553 155.682 165.233  0.00  0.00    +0.000 A 
ATOM      7  N6  UNL     1     156.289 156.129 165.271  0.00  0.00    +0.000 NA
ATOM      8  C18 UNL     1     156.157 157.050 166.261  0.00  0.00    +0.000 A 
ATOM      9  C19 UNL     1     155.088 157.811 166.724  0.00  0.00    +0.000 A 
ATOM     10  H18 UNL     1     159.226 156.219 166.457  0.00  0.00    +0.000 HD
ENDROOT
BRANCH   1  16
ATOM     11  C6  UNL     1     150.360 161.943 169.201  0.00  0.00    +0.000 A 
ATOM     12  C7  UNL     1     150.931 161.917 170.479  0.00  0.00    +0.000 A 
ATOM     13  C8  UNL     1     152.119 161.251 170.658  0.00  0.00    +0.000 A 
ATOM     14  C9  UNL     1     152.780 160.608 169.639  0.00  0.00    +0.000 A 
ATOM     15  N3  UNL     1     153.904 159.907 169.514  0.00  0.00    +0.000 N 
ATOM     16  C10 UNL     1     154.089 159.488 168.251  0.00  0.00    +0.000 A 
ATOM     17  N4  UNL     1     153.038 159.944 167.552  0.00  0.00    +0.000 NA
ATOM     18  C11 UNL     1     152.205 160.639 168.363  0.00  0.00    +0.000 A 
ATOM     19  C12 UNL     1     151.013 161.304 168.180  0.00  0.00    +0.000 A 
ATOM     20  H14 UNL     1     154.569 159.704 170.308  0.00  0.00    +0.000 HD
BRANCH  11  25
ATOM     21  C1  UNL     1     145.334 164.127 168.480  0.00  0.00    +0.000 C 
ATOM     22  N1  UNL     1     146.764 164.187 168.474  0.00  0.00    +0.000 NA
ATOM     23  C2  UNL     1     147.293 163.963 169.801  0.00  0.00    +0.000 C 
ATOM     24  C3  UNL     1     148.808 163.831 169.778  0.00  0.00    +0.000 C 
ATOM     25  N2  UNL     1     149.116 162.635 169.004  0.00  0.00    +0.000 N 
ATOM     26  C4  UNL     1     148.141 162.187 168.052  0.00  0.00    +0.000 C 
ATOM     27  C5  UNL     1     147.382 163.367 167.478  0.00  0.00    +0.000 C 
ENDBRANCH  11  25
ENDBRANCH   1  16
BRANCH   6  28
ATOM     28  C20 UNL     1     158.133 154.690 164.331  0.00  0.00    +0.000 A 
ATOM     29  C21 UNL     1     158.138 154.867 162.963  0.00  0.00    +0.000 A 
ATOM     30  C22 UNL     1     158.689 153.926 162.100  0.00  0.00    +0.000 A 
ATOM     31  C23 UNL     1     159.253 152.771 162.600  0.00  0.00    +0.000 A 
ATOM     32  C24 UNL     1     159.251 152.589 163.970  0.00  0.00    +0.000 A 
ATOM     33  C25 UNL     1     158.700 153.532 164.818  0.00  0.00    +0.000 A 
BRANCH  31  34
ATOM     34  O1  UNL     1     159.802 151.833 161.722  0.00  0.00    +0.000 OA
ATOM     35  H22 UNL     1     159.955 152.081 160.745  0.00  0.00    +0.000 HD
ENDBRANCH  31  34
ENDBRANCH   6  28
TORSDOF 4
ENDMDL
MODEL 8
REMARK VINA RESULT:      -6.5      1.810      2.897
REMARK  Name = ./3D_structures\o49_MMV020752_3D.pdb
REMARK  5 active torsions:
REMARK  status: ('A' for Active; 'I' for Inactive)
REMARK    1  A    between atoms: C1_1  and  N1_2
REMARK    2  A    between atoms: N2_5  and  C6_8
REMARK    3  A    between atoms: C10_13  and  C13_17
REMARK    4  A    between atoms: C17_22  and  C20_26
REMARK    5  A    between atoms: C23_29  and  O1_30
REMARK                            x       y       z     vdW  Elec       q    Type
REMARK                         _______ _______ _______ _____ _____    ______ ____
ROOT
ATOM      1  C13 UNL     1     153.861 160.453 166.000  0.00  0.00    +0.000 A 
ATOM      2  C14 UNL     1     153.543 161.336 164.989  0.00  0.00    +0.000 A 
ATOM      3  C15 UNL     1     152.504 162.237 165.073  0.00  0.00    +0.000 A 
ATOM      4  C16 UNL     1     151.736 162.262 166.233  0.00  0.00    +0.000 A 
ATOM      5  N5  UNL     1     150.681 162.988 166.639  0.00  0.00    +0.000 N 
ATOM      6  C17 UNL     1     150.292 162.623 167.873  0.00  0.00    +0.000 A 
ATOM      7  N6  UNL     1     151.122 161.640 168.253  0.00  0.00    +0.000 NA
ATOM      8  C18 UNL     1     152.023 161.394 167.266  0.00  0.00    +0.000 A 
ATOM      9  C19 UNL     1     153.082 160.501 167.137  0.00  0.00    +0.000 A 
ATOM     10  H18 UNL     1     150.243 163.736 166.046  0.00  0.00    +0.000 HD
ENDROOT
BRANCH   1  16
ATOM     11  C6  UNL     1     158.765 157.011 165.408  0.00  0.00    +0.000 A 
ATOM     12  C7  UNL     1     157.852 155.973 165.633  0.00  0.00    +0.000 A 
ATOM     13  C8  UNL     1     156.531 156.289 165.836  0.00  0.00    +0.000 A 
ATOM     14  C9  UNL     1     156.057 157.578 165.827  0.00  0.00    +0.000 A 
ATOM     15  N3  UNL     1     154.876 158.170 165.987  0.00  0.00    +0.000 N 
ATOM     16  C10 UNL     1     154.971 159.505 165.878  0.00  0.00    +0.000 A 
ATOM     17  N4  UNL     1     156.267 159.766 165.641  0.00  0.00    +0.000 NA
ATOM     18  C11 UNL     1     156.974 158.611 165.601  0.00  0.00    +0.000 A 
ATOM     19  C12 UNL     1     158.300 158.300 165.398  0.00  0.00    +0.000 A 
ATOM     20  H14 UNL     1     153.974 157.656 166.175  0.00  0.00    +0.000 HD
BRANCH  11  25
ATOM     21  C1  UNL     1     164.130 155.714 165.127  0.00  0.00    +0.000 C 
ATOM     22  N1  UNL     1     162.906 156.209 164.574  0.00  0.00    +0.000 NA
ATOM     23  C2  UNL     1     161.892 155.179 164.566  0.00  0.00    +0.000 C 
ATOM     24  C3  UNL     1     160.537 155.739 164.164  0.00  0.00    +0.000 C 
ATOM     25  N2  UNL     1     160.149 156.691 165.198  0.00  0.00    +0.000 N 
ATOM     26  C4  UNL     1     161.193 157.286 165.980  0.00  0.00    +0.000 C 
ATOM     27  C5  UNL     1     162.455 157.436 165.153  0.00  0.00    +0.000 C 
ENDBRANCH  11  25
ENDBRANCH   1  16
BRANCH   6  28
ATOM     28  C20 UNL     1     149.178 163.201 168.621  0.00  0.00    +0.000 A 
ATOM     29  C21 UNL     1     147.900 162.692 168.531  0.00  0.00    +0.000 A 
ATOM     30  C22 UNL     1     146.836 163.240 169.241  0.00  0.00    +0.000 A 
ATOM     31  C23 UNL     1     147.038 164.326 170.066  0.00  0.00    +0.000 A 
ATOM     32  C24 UNL     1     148.317 164.840 170.159  0.00  0.00    +0.000 A 
ATOM     33  C25 UNL     1     149.366 164.287 169.449  0.00  0.00    +0.000 A 
BRANCH  31  34
ATOM     34  O1  UNL     1     145.961 164.867 170.773  0.00  0.00    +0.000 OA
ATOM     35  H22 UNL     1     145.988 164.903 171.791  0.00  0.00    +0.000 HD
ENDBRANCH  31  34
ENDBRANCH   6  28
TORSDOF 4
ENDMDL
MODEL 9
REMARK VINA RESULT:      -6.5      2.220      2.847
REMARK  Name = ./3D_structures\o49_MMV020752_3D.pdb
REMARK  5 active torsions:
REMARK  status: ('A' for Active; 'I' for Inactive)
REMARK    1  A    between atoms: C1_1  and  N1_2
REMARK    2  A    between atoms: N2_5  and  C6_8
REMARK    3  A    between atoms: C10_13  and  C13_17
REMARK    4  A    between atoms: C17_22  and  C20_26
REMARK    5  A    between atoms: C23_29  and  O1_30
REMARK                            x       y       z     vdW  Elec       q    Type
REMARK                         _______ _______ _______ _____ _____    ______ ____
ROOT
ATOM      1  C13 UNL     1     153.912 158.789 168.108  0.00  0.00    +0.000 A 
ATOM      2  C14 UNL     1     153.295 158.117 169.143  0.00  0.00    +0.000 A 
ATOM      3  C15 UNL     1     152.093 158.511 169.688  0.00  0.00    +0.000 A 
ATOM      4  C16 UNL     1     151.466 159.641 169.171  0.00  0.00    +0.000 A 
ATOM      5  N5  UNL     1     150.322 160.286 169.456  0.00  0.00    +0.000 N 
ATOM      6  C17 UNL     1     150.159 161.353 168.654  0.00  0.00    +0.000 A 
ATOM      7  N6  UNL     1     151.228 161.380 167.844  0.00  0.00    +0.000 NA
ATOM      8  C18 UNL     1     152.052 160.339 168.137  0.00  0.00    +0.000 A 
ATOM      9  C19 UNL     1     153.268 159.905 167.618  0.00  0.00    +0.000 A 
ATOM     10  H18 UNL     1     149.664 159.972 170.213  0.00  0.00    +0.000 HD
ENDROOT
BRANCH   1  16
ATOM     11  C6  UNL     1     159.429 157.309 166.207  0.00  0.00    +0.000 A 
ATOM     12  C7  UNL     1     158.716 156.506 165.309  0.00  0.00    +0.000 A 
ATOM     13  C8  UNL     1     157.344 156.510 165.366  0.00  0.00    +0.000 A 
ATOM     14  C9  UNL     1     156.632 157.268 166.263  0.00  0.00    +0.000 A 
ATOM     15  N3  UNL     1     155.348 157.472 166.544  0.00  0.00    +0.000 N 
ATOM     16  C10 UNL     1     155.193 158.345 167.553  0.00  0.00    +0.000 A 
ATOM     17  N4  UNL     1     156.431 158.707 167.923  0.00  0.00    +0.000 NA
ATOM     18  C11 UNL     1     157.351 158.070 167.158  0.00  0.00    +0.000 A 
ATOM     19  C12 UNL     1     158.727 158.069 167.105  0.00  0.00    +0.000 A 
ATOM     20  H14 UNL     1     154.547 157.005 166.038  0.00  0.00    +0.000 HD
BRANCH  11  25
ATOM     21  C1  UNL     1     164.910 157.458 165.505  0.00  0.00    +0.000 C 
ATOM     22  N1  UNL     1     163.726 157.127 166.239  0.00  0.00    +0.000 NA
ATOM     23  C2  UNL     1     162.990 158.320 166.591  0.00  0.00    +0.000 C 
ATOM     24  C3  UNL     1     161.638 157.978 167.197  0.00  0.00    +0.000 C 
ATOM     25  N2  UNL     1     160.865 157.310 166.157  0.00  0.00    +0.000 N 
ATOM     26  C4  UNL     1     161.589 156.662 165.102  0.00  0.00    +0.000 C 
ATOM     27  C5  UNL     1     162.912 156.129 165.618  0.00  0.00    +0.000 C 
ENDBRANCH  11  25
ENDBRANCH   1  16
BRANCH   6  28
ATOM     28  C20 UNL     1     149.030 162.279 168.687  0.00  0.00    +0.000 A 
ATOM     29  C21 UNL     1     147.953 162.142 167.836  0.00  0.00    +0.000 A 
ATOM     30  C22 UNL     1     146.875 163.021 167.864  0.00  0.00    +0.000 A 
ATOM     31  C23 UNL     1     146.857 164.070 168.758  0.00  0.00    +0.000 A 
ATOM     32  C24 UNL     1     147.934 164.211 169.613  0.00  0.00    +0.000 A 
ATOM     33  C25 UNL     1     149.000 163.332 169.576  0.00  0.00    +0.000 A 
BRANCH  31  34
ATOM     34  O1  UNL     1     145.769 164.946 168.775  0.00  0.00    +0.000 OA
ATOM     35  H22 UNL     1     144.890 164.673 168.337  0.00  0.00    +0.000 HD
ENDBRANCH  31  34
ENDBRANCH   6  28
TORSDOF 4
ENDMDL
