MODEL 1
REMARK VINA RESULT:      -5.6      0.000      0.000
REMARK  Name = ./3D_structures\o4_MMV1578561_3D.pdb
REMARK  8 active torsions:
REMARK  status: ('A' for Active; 'I' for Inactive)
REMARK    1  A    between atoms: C1_1  and  C2_2
REMARK    2  A    between atoms: C2_2  and  C3_3
REMARK    3  A    between atoms: C3_3  and  C4_4
REMARK    4  A    between atoms: C4_4  and  C5_5
REMARK    5  A    between atoms: C5_5  and  C6_6
REMARK    6  A    between atoms: C6_6  and  C7_7
REMARK    7  A    between atoms: C7_7  and  C8_8
REMARK    8  A    between atoms: C9_9  and  O1_10
REMARK                            x       y       z     vdW  Elec       q    Type
REMARK                         _______ _______ _______ _____ _____    ______ ____
ROOT
ATOM      1  C8  UNL     1     157.450 157.417 166.627  0.00  0.00    +0.000 A 
ATOM      2  C9  UNL     1     156.093 157.099 166.753  0.00  0.00    +0.000 A 
ATOM      3  C10 UNL     1     155.542 157.253 168.006  0.00  0.00    +0.000 A 
ATOM      4  O2  UNL     1     154.325 156.977 168.152  0.00  0.00    +0.000 OA
ATOM      5  C11 UNL     1     156.268 157.696 169.092  0.00  0.00    +0.000 A 
ATOM      6  C12 UNL     1     155.732 157.857 170.351  0.00  0.00    +0.000 A 
ATOM      7  C13 UNL     1     156.484 158.301 171.418  0.00  0.00    +0.000 A 
ATOM      8  C14 UNL     1     157.829 158.603 171.241  0.00  0.00    +0.000 A 
ATOM      9  C15 UNL     1     158.368 158.442 169.976  0.00  0.00    +0.000 A 
ATOM     10  C16 UNL     1     157.600 157.996 168.920  0.00  0.00    +0.000 A 
ATOM     11  N1  UNL     1     158.157 157.846 167.681  0.00  0.00    +0.000 N 
ATOM     12  H21 UNL     1     159.175 158.083 167.601  0.00  0.00    +0.000 HD
ENDROOT
BRANCH   2  13
ATOM     13  O1  UNL     1     155.383 156.656 165.649  0.00  0.00    +0.000 OA
ATOM     14  H16 UNL     1     154.503 157.101 165.426  0.00  0.00    +0.000 HD
ENDBRANCH   2  13
BRANCH   1  15
ATOM     15  C7  UNL     1     158.058 157.242 165.270  0.00  0.00    +0.000 C 
BRANCH  15  16
ATOM     16  C6  UNL     1     158.884 156.001 165.178  0.00  0.00    +0.000 C 
BRANCH  16  17
ATOM     17  C5  UNL     1     158.125 154.819 164.554  0.00  0.00    +0.000 C 
BRANCH  17  18
ATOM     18  C4  UNL     1     158.953 153.609 164.711  0.00  0.00    +0.000 C 
BRANCH  18  19
ATOM     19  C3  UNL     1     158.456 152.308 164.243  0.00  0.00    +0.000 C 
BRANCH  19  21
ATOM     20  C1  UNL     1     156.293 151.133 164.174  0.00  0.00    +0.000 C 
ATOM     21  C2  UNL     1     157.145 152.213 163.567  0.00  0.00    +0.000 C 
ENDBRANCH  19  21
ENDBRANCH  18  19
ENDBRANCH  17  18
ENDBRANCH  16  17
ENDBRANCH  15  16
ENDBRANCH   1  15
TORSDOF 7
ENDMDL
MODEL 2
REMARK VINA RESULT:      -5.5      2.429      3.743
REMARK  Name = ./3D_structures\o4_MMV1578561_3D.pdb
REMARK  8 active torsions:
REMARK  status: ('A' for Active; 'I' for Inactive)
REMARK    1  A    between atoms: C1_1  and  C2_2
REMARK    2  A    between atoms: C2_2  and  C3_3
REMARK    3  A    between atoms: C3_3  and  C4_4
REMARK    4  A    between atoms: C4_4  and  C5_5
REMARK    5  A    between atoms: C5_5  and  C6_6
REMARK    6  A    between atoms: C6_6  and  C7_7
REMARK    7  A    between atoms: C7_7  and  C8_8
REMARK    8  A    between atoms: C9_9  and  O1_10
REMARK                            x       y       z     vdW  Elec       q    Type
REMARK                         _______ _______ _______ _____ _____    ______ ____
ROOT
ATOM      1  C8  UNL     1     157.583 157.270 166.755  0.00  0.00    +0.000 A 
ATOM      2  C9  UNL     1     156.215 156.983 166.801  0.00  0.00    +0.000 A 
ATOM      3  C10 UNL     1     155.582 157.208 168.005  0.00  0.00    +0.000 A 
ATOM      4  O2  UNL     1     154.352 156.961 168.078  0.00  0.00    +0.000 OA
ATOM      5  C11 UNL     1     156.242 157.690 169.116  0.00  0.00    +0.000 A 
ATOM      6  C12 UNL     1     155.624 157.921 170.326  0.00  0.00    +0.000 A 
ATOM      7  C13 UNL     1     156.311 158.403 171.420  0.00  0.00    +0.000 A 
ATOM      8  C14 UNL     1     157.671 158.671 171.323  0.00  0.00    +0.000 A 
ATOM      9  C15 UNL     1     158.292 158.440 170.108  0.00  0.00    +0.000 A 
ATOM     10  C16 UNL     1     157.589 157.957 169.023  0.00  0.00    +0.000 A 
ATOM     11  N1  UNL     1     158.226 157.738 167.834  0.00  0.00    +0.000 N 
ATOM     12  H21 UNL     1     159.252 157.952 167.814  0.00  0.00    +0.000 HD
ENDROOT
BRANCH   2  13
ATOM     13  O1  UNL     1     155.573 156.501 165.672  0.00  0.00    +0.000 OA
ATOM     14  H16 UNL     1     154.574 156.634 165.587  0.00  0.00    +0.000 HD
ENDBRANCH   2  13
BRANCH   1  15
ATOM     15  C7  UNL     1     158.279 157.019 165.453  0.00  0.00    +0.000 C 
BRANCH  15  16
ATOM     16  C6  UNL     1     159.765 157.014 165.599  0.00  0.00    +0.000 C 
BRANCH  16  17
ATOM     17  C5  UNL     1     160.408 158.363 165.236  0.00  0.00    +0.000 C 
BRANCH  17  18
ATOM     18  C4  UNL     1     161.698 158.460 165.942  0.00  0.00    +0.000 C 
BRANCH  18  19
ATOM     19  C3  UNL     1     161.843 157.907 167.295  0.00  0.00    +0.000 C 
BRANCH  19  21
ATOM     20  C1  UNL     1     163.590 156.411 166.416  0.00  0.00    +0.000 C 
ATOM     21  C2  UNL     1     163.016 157.075 167.637  0.00  0.00    +0.000 C 
ENDBRANCH  19  21
ENDBRANCH  18  19
ENDBRANCH  17  18
ENDBRANCH  16  17
ENDBRANCH  15  16
ENDBRANCH   1  15
TORSDOF 7
ENDMDL
MODEL 3
REMARK VINA RESULT:      -5.5     12.090     14.506
REMARK  Name = ./3D_structures\o4_MMV1578561_3D.pdb
REMARK  8 active torsions:
REMARK  status: ('A' for Active; 'I' for Inactive)
REMARK    1  A    between atoms: C1_1  and  C2_2
REMARK    2  A    between atoms: C2_2  and  C3_3
REMARK    3  A    between atoms: C3_3  and  C4_4
REMARK    4  A    between atoms: C4_4  and  C5_5
REMARK    5  A    between atoms: C5_5  and  C6_6
REMARK    6  A    between atoms: C6_6  and  C7_7
REMARK    7  A    between atoms: C7_7  and  C8_8
REMARK    8  A    between atoms: C9_9  and  O1_10
REMARK                            x       y       z     vdW  Elec       q    Type
REMARK                         _______ _______ _______ _____ _____    ______ ____
ROOT
ATOM      1  C8  UNL     1     147.839 164.686 166.413  0.00  0.00    +0.000 A 
ATOM      2  C9  UNL     1     147.541 166.047 166.287  0.00  0.00    +0.000 A 
ATOM      3  C10 UNL     1     146.225 166.363 166.026  0.00  0.00    +0.000 A 
ATOM      4  O2  UNL     1     145.923 167.577 165.907  0.00  0.00    +0.000 OA
ATOM      5  C11 UNL     1     145.240 165.407 165.893  0.00  0.00    +0.000 A 
ATOM      6  C12 UNL     1     143.920 165.706 165.632  0.00  0.00    +0.000 A 
ATOM      7  C13 UNL     1     142.958 164.728 165.504  0.00  0.00    +0.000 A 
ATOM      8  C14 UNL     1     143.306 163.389 165.638  0.00  0.00    +0.000 A 
ATOM      9  C15 UNL     1     144.632 163.088 165.900  0.00  0.00    +0.000 A 
ATOM     10  C16 UNL     1     145.582 164.080 166.025  0.00  0.00    +0.000 A 
ATOM     11  N1  UNL     1     146.884 163.756 166.284  0.00  0.00    +0.000 N 
ATOM     12  H21 UNL     1     147.096 162.733 166.371  0.00  0.00    +0.000 HD
ENDROOT
BRANCH   2  13
ATOM     13  O1  UNL     1     148.546 166.990 166.425  0.00  0.00    +0.000 OA
ATOM     14  H16 UNL     1     149.382 166.738 166.935  0.00  0.00    +0.000 HD
ENDBRANCH   2  13
BRANCH   1  15
ATOM     15  C7  UNL     1     149.269 164.336 166.688  0.00  0.00    +0.000 C 
BRANCH  15  16
ATOM     16  C6  UNL     1     149.447 163.699 168.027  0.00  0.00    +0.000 C 
BRANCH  16  17
ATOM     17  C5  UNL     1     149.638 164.724 169.158  0.00  0.00    +0.000 C 
BRANCH  17  18
ATOM     18  C4  UNL     1     148.574 164.508 170.155  0.00  0.00    +0.000 C 
BRANCH  18  19
ATOM     19  C3  UNL     1     147.375 165.357 170.152  0.00  0.00    +0.000 C 
BRANCH  19  21
ATOM     20  C1  UNL     1     146.056 163.330 169.689  0.00  0.00    +0.000 C 
ATOM     21  C2  UNL     1     146.094 164.832 169.634  0.00  0.00    +0.000 C 
ENDBRANCH  19  21
ENDBRANCH  18  19
ENDBRANCH  17  18
ENDBRANCH  16  17
ENDBRANCH  15  16
ENDBRANCH   1  15
TORSDOF 7
ENDMDL
MODEL 4
REMARK VINA RESULT:      -5.5      2.441      4.110
REMARK  Name = ./3D_structures\o4_MMV1578561_3D.pdb
REMARK  8 active torsions:
REMARK  status: ('A' for Active; 'I' for Inactive)
REMARK    1  A    between atoms: C1_1  and  C2_2
REMARK    2  A    between atoms: C2_2  and  C3_3
REMARK    3  A    between atoms: C3_3  and  C4_4
REMARK    4  A    between atoms: C4_4  and  C5_5
REMARK    5  A    between atoms: C5_5  and  C6_6
REMARK    6  A    between atoms: C6_6  and  C7_7
REMARK    7  A    between atoms: C7_7  and  C8_8
REMARK    8  A    between atoms: C9_9  and  O1_10
REMARK                            x       y       z     vdW  Elec       q    Type
REMARK                         _______ _______ _______ _____ _____    ______ ____
ROOT
ATOM      1  C8  UNL     1     157.627 157.289 166.712  0.00  0.00    +0.000 A 
ATOM      2  C9  UNL     1     156.262 156.987 166.755  0.00  0.00    +0.000 A 
ATOM      3  C10 UNL     1     155.626 157.198 167.960  0.00  0.00    +0.000 A 
ATOM      4  O2  UNL     1     154.399 156.937 168.031  0.00  0.00    +0.000 OA
ATOM      5  C11 UNL     1     156.280 157.680 169.074  0.00  0.00    +0.000 A 
ATOM      6  C12 UNL     1     155.659 157.898 170.285  0.00  0.00    +0.000 A 
ATOM      7  C13 UNL     1     156.340 158.380 171.382  0.00  0.00    +0.000 A 
ATOM      8  C14 UNL     1     157.697 158.664 171.288  0.00  0.00    +0.000 A 
ATOM      9  C15 UNL     1     158.321 158.446 170.071  0.00  0.00    +0.000 A 
ATOM     10  C16 UNL     1     157.624 157.963 168.984  0.00  0.00    +0.000 A 
ATOM     11  N1  UNL     1     158.264 157.757 167.794  0.00  0.00    +0.000 N 
ATOM     12  H21 UNL     1     159.287 157.982 167.776  0.00  0.00    +0.000 HD
ENDROOT
BRANCH   2  13
ATOM     13  O1  UNL     1     155.626 156.504 165.623  0.00  0.00    +0.000 OA
ATOM     14  H16 UNL     1     156.072 156.629 164.724  0.00  0.00    +0.000 HD
ENDBRANCH   2  13
BRANCH   1  15
ATOM     15  C7  UNL     1     158.326 157.053 165.409  0.00  0.00    +0.000 C 
BRANCH  15  16
ATOM     16  C6  UNL     1     158.712 158.329 164.736  0.00  0.00    +0.000 C 
BRANCH  16  17
ATOM     17  C5  UNL     1     157.708 158.767 163.658  0.00  0.00    +0.000 C 
BRANCH  17  18
ATOM     18  C4  UNL     1     157.075 160.021 164.104  0.00  0.00    +0.000 C 
BRANCH  18  19
ATOM     19  C3  UNL     1     155.794 159.987 164.822  0.00  0.00    +0.000 C 
BRANCH  19  21
ATOM     20  C1  UNL     1     156.676 160.889 166.937  0.00  0.00    +0.000 C 
ATOM     21  C2  UNL     1     155.547 160.916 165.945  0.00  0.00    +0.000 C 
ENDBRANCH  19  21
ENDBRANCH  18  19
ENDBRANCH  17  18
ENDBRANCH  16  17
ENDBRANCH  15  16
ENDBRANCH   1  15
TORSDOF 7
ENDMDL
MODEL 5
REMARK VINA RESULT:      -5.4     10.467     12.074
REMARK  Name = ./3D_structures\o4_MMV1578561_3D.pdb
REMARK  8 active torsions:
REMARK  status: ('A' for Active; 'I' for Inactive)
REMARK    1  A    between atoms: C1_1  and  C2_2
REMARK    2  A    between atoms: C2_2  and  C3_3
REMARK    3  A    between atoms: C3_3  and  C4_4
REMARK    4  A    between atoms: C4_4  and  C5_5
REMARK    5  A    between atoms: C5_5  and  C6_6
REMARK    6  A    between atoms: C6_6  and  C7_7
REMARK    7  A    between atoms: C7_7  and  C8_8
REMARK    8  A    between atoms: C9_9  and  O1_10
REMARK                            x       y       z     vdW  Elec       q    Type
REMARK                         _______ _______ _______ _____ _____    ______ ____
ROOT
ATOM      1  C8  UNL     1     149.498 165.402 166.269  0.00  0.00    +0.000 A 
ATOM      2  C9  UNL     1     149.150 164.130 166.734  0.00  0.00    +0.000 A 
ATOM      3  C10 UNL     1     147.802 163.855 166.814  0.00  0.00    +0.000 A 
ATOM      4  O2  UNL     1     147.456 162.720 167.228  0.00  0.00    +0.000 OA
ATOM      5  C11 UNL     1     146.831 164.768 166.459  0.00  0.00    +0.000 A 
ATOM      6  C12 UNL     1     145.480 164.509 166.531  0.00  0.00    +0.000 A 
ATOM      7  C13 UNL     1     144.533 165.443 166.169  0.00  0.00    +0.000 A 
ATOM      8  C14 UNL     1     144.931 166.694 165.713  0.00  0.00    +0.000 A 
ATOM      9  C15 UNL     1     146.288 166.955 165.640  0.00  0.00    +0.000 A 
ATOM     10  C16 UNL     1     147.222 166.008 166.006  0.00  0.00    +0.000 A 
ATOM     11  N1  UNL     1     148.557 166.291 165.924  0.00  0.00    +0.000 N 
ATOM     12  H21 UNL     1     148.804 167.249 165.578  0.00  0.00    +0.000 HD
ENDROOT
BRANCH   2  13
ATOM     13  O1  UNL     1     150.142 163.228 167.085  0.00  0.00    +0.000 OA
ATOM     14  H16 UNL     1     149.958 162.239 166.981  0.00  0.00    +0.000 HD
ENDBRANCH   2  13
BRANCH   1  15
ATOM     15  C7  UNL     1     150.961 165.711 166.189  0.00  0.00    +0.000 C 
BRANCH  15  16
ATOM     16  C6  UNL     1     151.408 165.967 164.787  0.00  0.00    +0.000 C 
BRANCH  16  17
ATOM     17  C5  UNL     1     152.621 165.115 164.379  0.00  0.00    +0.000 C 
BRANCH  17  18
ATOM     18  C4  UNL     1     152.144 163.751 164.088  0.00  0.00    +0.000 C 
BRANCH  18  19
ATOM     19  C3  UNL     1     152.887 162.586 164.587  0.00  0.00    +0.000 C 
BRANCH  19  21
ATOM     20  C1  UNL     1     153.043 160.376 165.661  0.00  0.00    +0.000 C 
ATOM     21  C2  UNL     1     152.180 161.319 164.871  0.00  0.00    +0.000 C 
ENDBRANCH  19  21
ENDBRANCH  18  19
ENDBRANCH  17  18
ENDBRANCH  16  17
ENDBRANCH  15  16
ENDBRANCH   1  15
TORSDOF 7
ENDMDL
MODEL 6
REMARK VINA RESULT:      -5.4      1.409      2.094
REMARK  Name = ./3D_structures\o4_MMV1578561_3D.pdb
REMARK  8 active torsions:
REMARK  status: ('A' for Active; 'I' for Inactive)
REMARK    1  A    between atoms: C1_1  and  C2_2
REMARK    2  A    between atoms: C2_2  and  C3_3
REMARK    3  A    between atoms: C3_3  and  C4_4
REMARK    4  A    between atoms: C4_4  and  C5_5
REMARK    5  A    between atoms: C5_5  and  C6_6
REMARK    6  A    between atoms: C6_6  and  C7_7
REMARK    7  A    between atoms: C7_7  and  C8_8
REMARK    8  A    between atoms: C9_9  and  O1_10
REMARK                            x       y       z     vdW  Elec       q    Type
REMARK                         _______ _______ _______ _____ _____    ______ ____
ROOT
ATOM      1  C8  UNL     1     157.529 157.273 166.512  0.00  0.00    +0.000 A 
ATOM      2  C9  UNL     1     156.162 157.010 166.651  0.00  0.00    +0.000 A 
ATOM      3  C10 UNL     1     155.620 157.231 167.898  0.00  0.00    +0.000 A 
ATOM      4  O2  UNL     1     154.393 157.005 168.056  0.00  0.00    +0.000 OA
ATOM      5  C11 UNL     1     156.364 157.687 168.965  0.00  0.00    +0.000 A 
ATOM      6  C12 UNL     1     155.838 157.915 170.219  0.00  0.00    +0.000 A 
ATOM      7  C13 UNL     1     156.608 158.371 171.267  0.00  0.00    +0.000 A 
ATOM      8  C14 UNL     1     157.963 158.616 171.077  0.00  0.00    +0.000 A 
ATOM      9  C15 UNL     1     158.493 158.389 169.818  0.00  0.00    +0.000 A 
ATOM     10  C16 UNL     1     157.706 157.932 168.781  0.00  0.00    +0.000 A 
ATOM     11  N1  UNL     1     158.254 157.715 167.548  0.00  0.00    +0.000 N 
ATOM     12  H21 UNL     1     159.280 157.911 167.458  0.00  0.00    +0.000 HD
ENDROOT
BRANCH   2  13
ATOM     13  O1  UNL     1     155.433 156.552 165.565  0.00  0.00    +0.000 OA
ATOM     14  H16 UNL     1     155.632 155.631 165.199  0.00  0.00    +0.000 HD
ENDBRANCH   2  13
BRANCH   1  15
ATOM     15  C7  UNL     1     158.126 157.024 165.161  0.00  0.00    +0.000 C 
BRANCH  15  16
ATOM     16  C6  UNL     1     158.899 155.747 165.112  0.00  0.00    +0.000 C 
BRANCH  16  17
ATOM     17  C5  UNL     1     158.096 154.582 164.512  0.00  0.00    +0.000 C 
BRANCH  17  18
ATOM     18  C4  UNL     1     158.630 154.303 163.167  0.00  0.00    +0.000 C 
BRANCH  18  19
ATOM     19  C3  UNL     1     157.918 154.780 161.975  0.00  0.00    +0.000 C 
BRANCH  19  21
ATOM     20  C1  UNL     1     158.133 157.170 161.420  0.00  0.00    +0.000 C 
ATOM     21  C2  UNL     1     158.552 155.768 161.076  0.00  0.00    +0.000 C 
ENDBRANCH  19  21
ENDBRANCH  18  19
ENDBRANCH  17  18
ENDBRANCH  16  17
ENDBRANCH  15  16
ENDBRANCH   1  15
TORSDOF 7
ENDMDL
MODEL 7
REMARK VINA RESULT:      -5.3      3.020      7.357
REMARK  Name = ./3D_structures\o4_MMV1578561_3D.pdb
REMARK  8 active torsions:
REMARK  status: ('A' for Active; 'I' for Inactive)
REMARK    1  A    between atoms: C1_1  and  C2_2
REMARK    2  A    between atoms: C2_2  and  C3_3
REMARK    3  A    between atoms: C3_3  and  C4_4
REMARK    4  A    between atoms: C4_4  and  C5_5
REMARK    5  A    between atoms: C5_5  and  C6_6
REMARK    6  A    between atoms: C6_6  and  C7_7
REMARK    7  A    between atoms: C7_7  and  C8_8
REMARK    8  A    between atoms: C9_9  and  O1_10
REMARK                            x       y       z     vdW  Elec       q    Type
REMARK                         _______ _______ _______ _____ _____    ______ ____
ROOT
ATOM      1  C8  UNL     1     156.879 158.064 170.427  0.00  0.00    +0.000 A 
ATOM      2  C9  UNL     1     155.957 157.513 169.530  0.00  0.00    +0.000 A 
ATOM      3  C10 UNL     1     156.404 157.308 168.242  0.00  0.00    +0.000 A 
ATOM      4  O2  UNL     1     155.600 156.814 167.413  0.00  0.00    +0.000 OA
ATOM      5  C11 UNL     1     157.684 157.621 167.837  0.00  0.00    +0.000 A 
ATOM      6  C12 UNL     1     158.146 157.422 166.554  0.00  0.00    +0.000 A 
ATOM      7  C13 UNL     1     159.433 157.745 166.179  0.00  0.00    +0.000 A 
ATOM      8  C14 UNL     1     160.311 158.291 167.108  0.00  0.00    +0.000 A 
ATOM      9  C15 UNL     1     159.847 158.491 168.398  0.00  0.00    +0.000 A 
ATOM     10  C16 UNL     1     158.556 158.161 168.755  0.00  0.00    +0.000 A 
ATOM     11  N1  UNL     1     158.124 158.369 170.035  0.00  0.00    +0.000 N 
ATOM     12  H21 UNL     1     158.822 158.786 170.696  0.00  0.00    +0.000 HD
ENDROOT
BRANCH   2  13
ATOM     13  O1  UNL     1     154.676 157.206 169.959  0.00  0.00    +0.000 OA
ATOM     14  H16 UNL     1     154.328 156.267 169.819  0.00  0.00    +0.000 HD
ENDBRANCH   2  13
BRANCH   1  15
ATOM     15  C7  UNL     1     156.398 158.298 171.825  0.00  0.00    +0.000 C 
BRANCH  15  16
ATOM     16  C6  UNL     1     156.077 159.734 172.079  0.00  0.00    +0.000 C 
BRANCH  16  17
ATOM     17  C5  UNL     1     155.679 160.012 173.537  0.00  0.00    +0.000 C 
BRANCH  17  18
ATOM     18  C4  UNL     1     154.248 160.365 173.562  0.00  0.00    +0.000 C 
BRANCH  18  19
ATOM     19  C3  UNL     1     153.473 160.397 172.315  0.00  0.00    +0.000 C 
BRANCH  19  21
ATOM     20  C1  UNL     1     151.535 159.807 173.715  0.00  0.00    +0.000 C 
ATOM     21  C2  UNL     1     152.007 160.210 172.345  0.00  0.00    +0.000 C 
ENDBRANCH  19  21
ENDBRANCH  18  19
ENDBRANCH  17  18
ENDBRANCH  16  17
ENDBRANCH  15  16
ENDBRANCH   1  15
TORSDOF 7
ENDMDL
MODEL 8
REMARK VINA RESULT:      -5.1      2.698      6.856
REMARK  Name = ./3D_structures\o4_MMV1578561_3D.pdb
REMARK  8 active torsions:
REMARK  status: ('A' for Active; 'I' for Inactive)
REMARK    1  A    between atoms: C1_1  and  C2_2
REMARK    2  A    between atoms: C2_2  and  C3_3
REMARK    3  A    between atoms: C3_3  and  C4_4
REMARK    4  A    between atoms: C4_4  and  C5_5
REMARK    5  A    between atoms: C5_5  and  C6_6
REMARK    6  A    between atoms: C6_6  and  C7_7
REMARK    7  A    between atoms: C7_7  and  C8_8
REMARK    8  A    between atoms: C9_9  and  O1_10
REMARK                            x       y       z     vdW  Elec       q    Type
REMARK                         _______ _______ _______ _____ _____    ______ ____
ROOT
ATOM      1  C8  UNL     1     156.412 157.866 169.328  0.00  0.00    +0.000 A 
ATOM      2  C9  UNL     1     155.763 157.236 168.261  0.00  0.00    +0.000 A 
ATOM      3  C10 UNL     1     156.519 157.012 167.131  0.00  0.00    +0.000 A 
ATOM      4  O2  UNL     1     155.965 156.446 166.155  0.00  0.00    +0.000 OA
ATOM      5  C11 UNL     1     157.844 157.380 167.034  0.00  0.00    +0.000 A 
ATOM      6  C12 UNL     1     158.614 157.164 165.912  0.00  0.00    +0.000 A 
ATOM      7  C13 UNL     1     159.937 157.544 165.845  0.00  0.00    +0.000 A 
ATOM      8  C14 UNL     1     160.536 158.169 166.932  0.00  0.00    +0.000 A 
ATOM      9  C15 UNL     1     159.763 158.387 168.061  0.00  0.00    +0.000 A 
ATOM     10  C16 UNL     1     158.440 157.999 168.109  0.00  0.00    +0.000 A 
ATOM     11  N1  UNL     1     157.699 158.226 169.236  0.00  0.00    +0.000 N 
ATOM     12  H21 UNL     1     158.196 158.703 170.025  0.00  0.00    +0.000 HD
ENDROOT
BRANCH   2  13
ATOM     13  O1  UNL     1     154.431 156.874 168.381  0.00  0.00    +0.000 OA
ATOM     14  H16 UNL     1     153.720 157.569 168.197  0.00  0.00    +0.000 HD
ENDBRANCH   2  13
BRANCH   1  15
ATOM     15  C7  UNL     1     155.594 158.121 170.556  0.00  0.00    +0.000 C 
BRANCH  15  16
ATOM     16  C6  UNL     1     156.443 158.347 171.763  0.00  0.00    +0.000 C 
BRANCH  16  17
ATOM     17  C5  UNL     1     156.120 159.664 172.486  0.00  0.00    +0.000 C 
BRANCH  17  18
ATOM     18  C4  UNL     1     156.269 160.766 171.519  0.00  0.00    +0.000 C 
BRANCH  18  19
ATOM     19  C3  UNL     1     156.964 162.001 171.906  0.00  0.00    +0.000 C 
BRANCH  19  21
ATOM     20  C1  UNL     1     158.344 161.626 169.901  0.00  0.00    +0.000 C 
ATOM     21  C2  UNL     1     158.066 162.527 171.073  0.00  0.00    +0.000 C 
ENDBRANCH  19  21
ENDBRANCH  18  19
ENDBRANCH  17  18
ENDBRANCH  16  17
ENDBRANCH  15  16
ENDBRANCH   1  15
TORSDOF 7
ENDMDL
MODEL 9
REMARK VINA RESULT:      -5.0      3.834      5.919
REMARK  Name = ./3D_structures\o4_MMV1578561_3D.pdb
REMARK  8 active torsions:
REMARK  status: ('A' for Active; 'I' for Inactive)
REMARK    1  A    between atoms: C1_1  and  C2_2
REMARK    2  A    between atoms: C2_2  and  C3_3
REMARK    3  A    between atoms: C3_3  and  C4_4
REMARK    4  A    between atoms: C4_4  and  C5_5
REMARK    5  A    between atoms: C5_5  and  C6_6
REMARK    6  A    between atoms: C6_6  and  C7_7
REMARK    7  A    between atoms: C7_7  and  C8_8
REMARK    8  A    between atoms: C9_9  and  O1_10
REMARK                            x       y       z     vdW  Elec       q    Type
REMARK                         _______ _______ _______ _____ _____    ______ ____
ROOT
ATOM      1  C8  UNL     1     155.664 158.145 168.196  0.00  0.00    +0.000 A 
ATOM      2  C9  UNL     1     157.008 157.914 168.507  0.00  0.00    +0.000 A 
ATOM      3  C10 UNL     1     157.423 158.311 169.760  0.00  0.00    +0.000 A 
ATOM      4  O2  UNL     1     158.625 158.117 170.071  0.00  0.00    +0.000 OA
ATOM      5  C11 UNL     1     156.577 158.904 170.673  0.00  0.00    +0.000 A 
ATOM      6  C12 UNL     1     156.975 159.306 171.930  0.00  0.00    +0.000 A 
ATOM      7  C13 UNL     1     156.106 159.898 172.821  0.00  0.00    +0.000 A 
ATOM      8  C14 UNL     1     154.780 160.106 172.463  0.00  0.00    +0.000 A 
ATOM      9  C15 UNL     1     154.378 159.702 171.200  0.00  0.00    +0.000 A 
ATOM     10  C16 UNL     1     155.263 159.112 170.321  0.00  0.00    +0.000 A 
ATOM     11  N1  UNL     1     154.841 158.722 169.081  0.00  0.00    +0.000 N 
ATOM     12  H21 UNL     1     153.833 158.905 168.858  0.00  0.00    +0.000 HD
ENDROOT
BRANCH   2  13
ATOM     13  O1  UNL     1     157.840 157.316 167.574  0.00  0.00    +0.000 OA
ATOM     14  H16 UNL     1     157.428 156.730 166.860  0.00  0.00    +0.000 HD
ENDBRANCH   2  13
BRANCH   1  15
ATOM     15  C7  UNL     1     155.209 157.725 166.832  0.00  0.00    +0.000 C 
BRANCH  15  16
ATOM     16  C6  UNL     1     154.264 158.709 166.225  0.00  0.00    +0.000 C 
BRANCH  16  17
ATOM     17  C5  UNL     1     154.980 159.893 165.554  0.00  0.00    +0.000 C 
BRANCH  17  18
ATOM     18  C4  UNL     1     153.986 160.956 165.320  0.00  0.00    +0.000 C 
BRANCH  18  19
ATOM     19  C3  UNL     1     152.554 160.632 165.277  0.00  0.00    +0.000 C 
BRANCH  19  21
ATOM     20  C1  UNL     1     151.955 162.892 166.050  0.00  0.00    +0.000 C 
ATOM     21  C2  UNL     1     151.587 161.435 166.055  0.00  0.00    +0.000 C 
ENDBRANCH  19  21
ENDBRANCH  18  19
ENDBRANCH  17  18
ENDBRANCH  16  17
ENDBRANCH  15  16
ENDBRANCH   1  15
TORSDOF 7
ENDMDL
