MODEL 1
REMARK VINA RESULT:      -5.5      0.000      0.000
REMARK  Name = ./3D_structures\o50_MMV1229204_3D.pdb
REMARK  12 active torsions:
REMARK  status: ('A' for Active; 'I' for Inactive)
REMARK    1  A    between atoms: C1_1  and  C2_2
REMARK    2  A    between atoms: C2_2  and  C3_3
REMARK    3  A    between atoms: C2_2  and  C4_4
REMARK    4  A    between atoms: C2_2  and  C5_5
REMARK    5  A    between atoms: C7_7  and  C8_8
REMARK    6  A    between atoms: C8_8  and  C9_9
REMARK    7  A    between atoms: C9_9  and  C10_10
REMARK    8  A    between atoms: C15_17  and  C17_20
REMARK    9  A    between atoms: C16_18  and  O2_19
REMARK   10  A    between atoms: C17_20  and  C18_21
REMARK   11  A    between atoms: C17_20  and  C19_22
REMARK   12  A    between atoms: C17_20  and  C20_23
REMARK                            x       y       z     vdW  Elec       q    Type
REMARK                         _______ _______ _______ _____ _____    ______ ____
ROOT
ATOM      1  C5  UNL     1     161.366 157.600 166.526  0.00  0.00    +0.000 A 
ATOM      2  C6  UNL     1     160.879 158.293 167.611  0.00  0.00    +0.000 A 
ATOM      3  C7  UNL     1     159.513 158.400 167.899  0.00  0.00    +0.000 A 
ATOM      4  C14 UNL     1     158.659 157.769 167.031  0.00  0.00    +0.000 A 
ATOM      5  C15 UNL     1     159.083 157.054 165.921  0.00  0.00    +0.000 A 
ATOM      6  C16 UNL     1     160.443 156.989 165.697  0.00  0.00    +0.000 A 
ENDROOT
BRANCH   1   8
ATOM      7  C1  UNL     1     163.512 158.133 167.524  0.00  0.00    +0.000 C 
ATOM      8  C2  UNL     1     162.823 157.552 166.307  0.00  0.00    +0.000 C 
ATOM      9  C3  UNL     1     163.326 156.128 166.171  0.00  0.00    +0.000 C 
ATOM     10  C4  UNL     1     163.268 158.332 165.105  0.00  0.00    +0.000 C 
ENDBRANCH   1   8
BRANCH   5  11
ATOM     11  C17 UNL     1     158.101 156.393 165.022  0.00  0.00    +0.000 C 
ATOM     12  C18 UNL     1     158.374 154.901 164.912  0.00  0.00    +0.000 C 
ATOM     13  C19 UNL     1     156.722 156.542 165.613  0.00  0.00    +0.000 C 
ATOM     14  C20 UNL     1     158.077 157.059 163.660  0.00  0.00    +0.000 C 
ENDBRANCH   5  11
BRANCH   6  15
ATOM     15  O2  UNL     1     160.926 156.292 164.610  0.00  0.00    +0.000 OA
ATOM     16  H22 UNL     1     161.813 156.460 164.195  0.00  0.00    +0.000 HD
ENDBRANCH   6  15
BRANCH   3  17
ATOM     17  C8  UNL     1     159.057 159.188 169.059  0.00  0.00    +0.000 C 
BRANCH  17  18
ATOM     18  C9  UNL     1     158.362 158.327 170.046  0.00  0.00    +0.000 C 
BRANCH  18  19
ATOM     19  C10 UNL     1     157.177 158.864 170.711  0.00  0.00    +0.000 C 
ATOM     20  O1  UNL     1     157.196 159.507 171.782  0.00  0.00    +0.000 OA
ATOM     21  N1  UNL     1     155.901 158.657 170.126  0.00  0.00    +0.000 N 
ATOM     22  C11 UNL     1     154.529 159.010 170.450  0.00  0.00    +0.000 C 
ATOM     23  C12 UNL     1     154.057 157.934 169.475  0.00  0.00    +0.000 C 
ATOM     24  C13 UNL     1     155.463 157.983 168.923  0.00  0.00    +0.000 C 
ENDBRANCH  18  19
ENDBRANCH  17  18
ENDBRANCH   3  17
TORSDOF 6
ENDMDL
MODEL 2
REMARK VINA RESULT:      -5.5      4.365      6.563
REMARK  Name = ./3D_structures\o50_MMV1229204_3D.pdb
REMARK  12 active torsions:
REMARK  status: ('A' for Active; 'I' for Inactive)
REMARK    1  A    between atoms: C1_1  and  C2_2
REMARK    2  A    between atoms: C2_2  and  C3_3
REMARK    3  A    between atoms: C2_2  and  C4_4
REMARK    4  A    between atoms: C2_2  and  C5_5
REMARK    5  A    between atoms: C7_7  and  C8_8
REMARK    6  A    between atoms: C8_8  and  C9_9
REMARK    7  A    between atoms: C9_9  and  C10_10
REMARK    8  A    between atoms: C15_17  and  C17_20
REMARK    9  A    between atoms: C16_18  and  O2_19
REMARK   10  A    between atoms: C17_20  and  C18_21
REMARK   11  A    between atoms: C17_20  and  C19_22
REMARK   12  A    between atoms: C17_20  and  C20_23
REMARK                            x       y       z     vdW  Elec       q    Type
REMARK                         _______ _______ _______ _____ _____    ______ ____
ROOT
ATOM      1  C5  UNL     1     155.790 159.111 169.701  0.00  0.00    +0.000 A 
ATOM      2  C6  UNL     1     154.625 158.507 170.117  0.00  0.00    +0.000 A 
ATOM      3  C7  UNL     1     153.481 158.420 169.315  0.00  0.00    +0.000 A 
ATOM      4  C14 UNL     1     153.571 158.980 168.066  0.00  0.00    +0.000 A 
ATOM      5  C15 UNL     1     154.713 159.602 167.585  0.00  0.00    +0.000 A 
ATOM      6  C16 UNL     1     155.805 159.651 168.428  0.00  0.00    +0.000 A 
ENDROOT
BRANCH   1   8
ATOM      7  C1  UNL     1     156.543 158.472 171.917  0.00  0.00    +0.000 C 
ATOM      8  C2  UNL     1     156.939 159.155 170.624  0.00  0.00    +0.000 C 
ATOM      9  C3  UNL     1     158.128 158.387 170.081  0.00  0.00    +0.000 C 
ATOM     10  C4  UNL     1     157.381 160.551 170.953  0.00  0.00    +0.000 C 
ENDBRANCH   1   8
BRANCH   5  11
ATOM     11  C17 UNL     1     154.743 160.187 166.219  0.00  0.00    +0.000 C 
ATOM     12  C18 UNL     1     155.699 159.424 165.315  0.00  0.00    +0.000 C 
ATOM     13  C19 UNL     1     153.370 160.063 165.606  0.00  0.00    +0.000 C 
ATOM     14  C20 UNL     1     155.078 161.665 166.266  0.00  0.00    +0.000 C 
ENDBRANCH   5  11
BRANCH   6  15
ATOM     15  O2  UNL     1     156.970 160.257 168.006  0.00  0.00    +0.000 OA
ATOM     16  H22 UNL     1     157.477 160.917 168.548  0.00  0.00    +0.000 HD
ENDBRANCH   6  15
BRANCH   3  17
ATOM     17  C8  UNL     1     152.253 157.790 169.836  0.00  0.00    +0.000 C 
BRANCH  17  18
ATOM     18  C9  UNL     1     151.329 158.807 170.393  0.00  0.00    +0.000 C 
BRANCH  18  19
ATOM     19  C10 UNL     1     150.071 159.048 169.691  0.00  0.00    +0.000 C 
ATOM     20  O1  UNL     1     149.052 158.333 169.797  0.00  0.00    +0.000 OA
ATOM     21  N1  UNL     1     149.967 160.163 168.820  0.00  0.00    +0.000 N 
ATOM     22  C11 UNL     1     148.938 160.735 167.967  0.00  0.00    +0.000 C 
ATOM     23  C12 UNL     1     150.027 161.516 167.234  0.00  0.00    +0.000 C 
ATOM     24  C13 UNL     1     150.894 161.205 168.432  0.00  0.00    +0.000 C 
ENDBRANCH  18  19
ENDBRANCH  17  18
ENDBRANCH   3  17
TORSDOF 6
ENDMDL
MODEL 3
REMARK VINA RESULT:      -5.5      0.105      3.726
REMARK  Name = ./3D_structures\o50_MMV1229204_3D.pdb
REMARK  12 active torsions:
REMARK  status: ('A' for Active; 'I' for Inactive)
REMARK    1  A    between atoms: C1_1  and  C2_2
REMARK    2  A    between atoms: C2_2  and  C3_3
REMARK    3  A    between atoms: C2_2  and  C4_4
REMARK    4  A    between atoms: C2_2  and  C5_5
REMARK    5  A    between atoms: C7_7  and  C8_8
REMARK    6  A    between atoms: C8_8  and  C9_9
REMARK    7  A    between atoms: C9_9  and  C10_10
REMARK    8  A    between atoms: C15_17  and  C17_20
REMARK    9  A    between atoms: C16_18  and  O2_19
REMARK   10  A    between atoms: C17_20  and  C18_21
REMARK   11  A    between atoms: C17_20  and  C19_22
REMARK   12  A    between atoms: C17_20  and  C20_23
REMARK                            x       y       z     vdW  Elec       q    Type
REMARK                         _______ _______ _______ _____ _____    ______ ____
ROOT
ATOM      1  C5  UNL     1     159.173 157.047 165.912  0.00  0.00    +0.000 A 
ATOM      2  C6  UNL     1     158.720 157.776 166.988  0.00  0.00    +0.000 A 
ATOM      3  C7  UNL     1     159.575 158.450 167.869  0.00  0.00    +0.000 A 
ATOM      4  C14 UNL     1     160.918 158.350 167.608  0.00  0.00    +0.000 A 
ATOM      5  C15 UNL     1     161.440 157.633 166.541  0.00  0.00    +0.000 A 
ATOM      6  C16 UNL     1     160.541 156.994 165.713  0.00  0.00    +0.000 A 
ENDROOT
BRANCH   1   8
ATOM      7  C1  UNL     1     156.813 156.552 165.648  0.00  0.00    +0.000 C 
ATOM      8  C2  UNL     1     158.191 156.369 165.047  0.00  0.00    +0.000 C 
ATOM      9  C3  UNL     1     158.139 156.985 163.663  0.00  0.00    +0.000 C 
ATOM     10  C4  UNL     1     158.444 154.897 164.905  0.00  0.00    +0.000 C 
ENDBRANCH   1   8
BRANCH   5  11
ATOM     11  C17 UNL     1     162.908 157.567 166.316  0.00  0.00    +0.000 C 
ATOM     12  C18 UNL     1     163.314 158.385 165.100  0.00  0.00    +0.000 C 
ATOM     13  C19 UNL     1     163.611 158.172 167.505  0.00  0.00    +0.000 C 
ATOM     14  C20 UNL     1     163.377 156.130 166.205  0.00  0.00    +0.000 C 
ENDBRANCH   5  11
BRANCH   6  15
ATOM     15  O2  UNL     1     160.999 156.266 164.635  0.00  0.00    +0.000 OA
ATOM     16  H22 UNL     1     161.404 156.674 163.824  0.00  0.00    +0.000 HD
ENDBRANCH   6  15
BRANCH   3  17
ATOM     17  C8  UNL     1     159.025 159.184 169.024  0.00  0.00    +0.000 C 
BRANCH  17  18
ATOM     18  C9  UNL     1     158.347 158.261 169.966  0.00  0.00    +0.000 C 
BRANCH  18  19
ATOM     19  C10 UNL     1     157.158 158.745 170.664  0.00  0.00    +0.000 C 
ATOM     20  O1  UNL     1     157.169 159.290 171.787  0.00  0.00    +0.000 OA
ATOM     21  N1  UNL     1     155.887 158.597 170.049  0.00  0.00    +0.000 N 
ATOM     22  C11 UNL     1     154.513 158.928 170.390  0.00  0.00    +0.000 C 
ATOM     23  C12 UNL     1     154.046 157.945 169.319  0.00  0.00    +0.000 C 
ATOM     24  C13 UNL     1     155.458 158.034 168.788  0.00  0.00    +0.000 C 
ENDBRANCH  18  19
ENDBRANCH  17  18
ENDBRANCH   3  17
TORSDOF 6
ENDMDL
MODEL 4
REMARK VINA RESULT:      -5.5      3.580      7.492
REMARK  Name = ./3D_structures\o50_MMV1229204_3D.pdb
REMARK  12 active torsions:
REMARK  status: ('A' for Active; 'I' for Inactive)
REMARK    1  A    between atoms: C1_1  and  C2_2
REMARK    2  A    between atoms: C2_2  and  C3_3
REMARK    3  A    between atoms: C2_2  and  C4_4
REMARK    4  A    between atoms: C2_2  and  C5_5
REMARK    5  A    between atoms: C7_7  and  C8_8
REMARK    6  A    between atoms: C8_8  and  C9_9
REMARK    7  A    between atoms: C9_9  and  C10_10
REMARK    8  A    between atoms: C15_17  and  C17_20
REMARK    9  A    between atoms: C16_18  and  O2_19
REMARK   10  A    between atoms: C17_20  and  C18_21
REMARK   11  A    between atoms: C17_20  and  C19_22
REMARK   12  A    between atoms: C17_20  and  C20_23
REMARK                            x       y       z     vdW  Elec       q    Type
REMARK                         _______ _______ _______ _____ _____    ______ ____
ROOT
ATOM      1  C5  UNL     1     153.616 160.727 166.297  0.00  0.00    +0.000 A 
ATOM      2  C6  UNL     1     154.448 159.735 165.829  0.00  0.00    +0.000 A 
ATOM      3  C7  UNL     1     154.655 158.528 166.508  0.00  0.00    +0.000 A 
ATOM      4  C14 UNL     1     153.976 158.373 167.690  0.00  0.00    +0.000 A 
ATOM      5  C15 UNL     1     153.123 159.331 168.216  0.00  0.00    +0.000 A 
ATOM      6  C16 UNL     1     152.965 160.497 167.495  0.00  0.00    +0.000 A 
ENDROOT
BRANCH   1   8
ATOM      7  C1  UNL     1     154.651 162.077 164.567  0.00  0.00    +0.000 C 
ATOM      8  C2  UNL     1     153.471 161.965 165.509  0.00  0.00    +0.000 C 
ATOM      9  C3  UNL     1     152.230 161.937 164.639  0.00  0.00    +0.000 C 
ATOM     10  C4  UNL     1     153.433 163.204 166.355  0.00  0.00    +0.000 C 
ENDBRANCH   1   8
BRANCH   5  11
ATOM     11  C17 UNL     1     152.417 159.096 169.503  0.00  0.00    +0.000 C 
ATOM     12  C18 UNL     1     150.947 159.471 169.400  0.00  0.00    +0.000 C 
ATOM     13  C19 UNL     1     152.471 157.624 169.827  0.00  0.00    +0.000 C 
ATOM     14  C20 UNL     1     153.102 159.828 170.641  0.00  0.00    +0.000 C 
ENDBRANCH   5  11
BRANCH   6  15
ATOM     15  O2  UNL     1     152.129 161.487 167.966  0.00  0.00    +0.000 OA
ATOM     16  H22 UNL     1     151.305 161.311 168.492  0.00  0.00    +0.000 HD
ENDBRANCH   6  15
BRANCH   3  17
ATOM     17  C8  UNL     1     155.588 157.521 165.969  0.00  0.00    +0.000 C 
BRANCH  17  18
ATOM     18  C9  UNL     1     156.354 156.871 167.059  0.00  0.00    +0.000 C 
BRANCH  18  19
ATOM     19  C10 UNL     1     157.619 157.479 167.466  0.00  0.00    +0.000 C 
ATOM     20  O1  UNL     1     158.646 157.521 166.756  0.00  0.00    +0.000 OA
ATOM     21  N1  UNL     1     157.721 158.070 168.752  0.00  0.00    +0.000 N 
ATOM     22  C11 UNL     1     158.754 158.752 169.514  0.00  0.00    +0.000 C 
ATOM     23  C12 UNL     1     157.941 158.496 170.781  0.00  0.00    +0.000 C 
ATOM     24  C13 UNL     1     156.786 158.225 169.846  0.00  0.00    +0.000 C 
ENDBRANCH  18  19
ENDBRANCH  17  18
ENDBRANCH   3  17
TORSDOF 6
ENDMDL
MODEL 5
REMARK VINA RESULT:      -5.4      4.331      6.958
REMARK  Name = ./3D_structures\o50_MMV1229204_3D.pdb
REMARK  12 active torsions:
REMARK  status: ('A' for Active; 'I' for Inactive)
REMARK    1  A    between atoms: C1_1  and  C2_2
REMARK    2  A    between atoms: C2_2  and  C3_3
REMARK    3  A    between atoms: C2_2  and  C4_4
REMARK    4  A    between atoms: C2_2  and  C5_5
REMARK    5  A    between atoms: C7_7  and  C8_8
REMARK    6  A    between atoms: C8_8  and  C9_9
REMARK    7  A    between atoms: C9_9  and  C10_10
REMARK    8  A    between atoms: C15_17  and  C17_20
REMARK    9  A    between atoms: C16_18  and  O2_19
REMARK   10  A    between atoms: C17_20  and  C18_21
REMARK   11  A    between atoms: C17_20  and  C19_22
REMARK   12  A    between atoms: C17_20  and  C20_23
REMARK                            x       y       z     vdW  Elec       q    Type
REMARK                         _______ _______ _______ _____ _____    ______ ____
ROOT
ATOM      1  C5  UNL     1     154.721 159.652 167.584  0.00  0.00    +0.000 A 
ATOM      2  C6  UNL     1     153.591 158.996 168.015  0.00  0.00    +0.000 A 
ATOM      3  C7  UNL     1     153.492 158.393 169.275  0.00  0.00    +0.000 A 
ATOM      4  C14 UNL     1     154.598 158.486 170.082  0.00  0.00    +0.000 A 
ATOM      5  C15 UNL     1     155.766 159.133 169.709  0.00  0.00    +0.000 A 
ATOM      6  C16 UNL     1     155.795 159.706 168.454  0.00  0.00    +0.000 A 
ENDROOT
BRANCH   1   8
ATOM      7  C1  UNL     1     153.338 160.121 165.647  0.00  0.00    +0.000 C 
ATOM      8  C2  UNL     1     154.727 160.249 166.236  0.00  0.00    +0.000 C 
ATOM      9  C3  UNL     1     155.038 161.733 166.278  0.00  0.00    +0.000 C 
ATOM     10  C4  UNL     1     155.692 159.585 165.298  0.00  0.00    +0.000 C 
ENDBRANCH   1   8
BRANCH   5  11
ATOM     11  C17 UNL     1     156.928 159.198 170.634  0.00  0.00    +0.000 C 
ATOM     12  C18 UNL     1     157.292 160.638 170.960  0.00  0.00    +0.000 C 
ATOM     13  C19 UNL     1     156.550 158.537 171.936  0.00  0.00    +0.000 C 
ATOM     14  C20 UNL     1     158.112 158.435 170.074  0.00  0.00    +0.000 C 
ENDBRANCH   5  11
BRANCH   6  15
ATOM     15  O2  UNL     1     156.929 160.364 168.026  0.00  0.00    +0.000 OA
ATOM     16  H22 UNL     1     157.814 160.288 168.472  0.00  0.00    +0.000 HD
ENDBRANCH   6  15
BRANCH   3  17
ATOM     17  C8  UNL     1     152.263 157.674 169.661  0.00  0.00    +0.000 C 
BRANCH  17  18
ATOM     18  C9  UNL     1     151.224 158.617 170.140  0.00  0.00    +0.000 C 
BRANCH  18  19
ATOM     19  C10 UNL     1     150.964 158.679 171.576  0.00  0.00    +0.000 C 
ATOM     20  O1  UNL     1     150.238 157.878 172.200  0.00  0.00    +0.000 OA
ATOM     21  N1  UNL     1     151.564 159.711 172.344  0.00  0.00    +0.000 N 
ATOM     22  C11 UNL     1     151.563 160.114 173.741  0.00  0.00    +0.000 C 
ATOM     23  C12 UNL     1     152.085 161.483 173.311  0.00  0.00    +0.000 C 
ATOM     24  C13 UNL     1     152.447 160.808 172.009  0.00  0.00    +0.000 C 
ENDBRANCH  18  19
ENDBRANCH  17  18
ENDBRANCH   3  17
TORSDOF 6
ENDMDL
MODEL 6
REMARK VINA RESULT:      -5.4      2.458      7.694
REMARK  Name = ./3D_structures\o50_MMV1229204_3D.pdb
REMARK  12 active torsions:
REMARK  status: ('A' for Active; 'I' for Inactive)
REMARK    1  A    between atoms: C1_1  and  C2_2
REMARK    2  A    between atoms: C2_2  and  C3_3
REMARK    3  A    between atoms: C2_2  and  C4_4
REMARK    4  A    between atoms: C2_2  and  C5_5
REMARK    5  A    between atoms: C7_7  and  C8_8
REMARK    6  A    between atoms: C8_8  and  C9_9
REMARK    7  A    between atoms: C9_9  and  C10_10
REMARK    8  A    between atoms: C15_17  and  C17_20
REMARK    9  A    between atoms: C16_18  and  O2_19
REMARK   10  A    between atoms: C17_20  and  C18_21
REMARK   11  A    between atoms: C17_20  and  C19_22
REMARK   12  A    between atoms: C17_20  and  C20_23
REMARK                            x       y       z     vdW  Elec       q    Type
REMARK                         _______ _______ _______ _____ _____    ______ ____
ROOT
ATOM      1  C5  UNL     1     154.855 158.921 169.859  0.00  0.00    +0.000 A 
ATOM      2  C6  UNL     1     156.147 158.513 169.622  0.00  0.00    +0.000 A 
ATOM      3  C7  UNL     1     157.234 158.922 170.404  0.00  0.00    +0.000 A 
ATOM      4  C14 UNL     1     156.948 159.770 171.444  0.00  0.00    +0.000 A 
ATOM      5  C15 UNL     1     155.669 160.218 171.739  0.00  0.00    +0.000 A 
ATOM      6  C16 UNL     1     154.645 159.775 170.927  0.00  0.00    +0.000 A 
ENDROOT
BRANCH   1   8
ATOM      7  C1  UNL     1     154.347 157.356 168.077  0.00  0.00    +0.000 C 
ATOM      8  C2  UNL     1     153.781 158.437 168.973  0.00  0.00    +0.000 C 
ATOM      9  C3  UNL     1     152.650 157.796 169.755  0.00  0.00    +0.000 C 
ATOM     10  C4  UNL     1     153.206 159.512 168.097  0.00  0.00    +0.000 C 
ENDBRANCH   1   8
BRANCH   5  11
ATOM     11  C17 UNL     1     155.430 161.136 172.883  0.00  0.00    +0.000 C 
ATOM     12  C18 UNL     1     154.528 160.493 173.925  0.00  0.00    +0.000 C 
ATOM     13  C19 UNL     1     156.746 161.422 173.561  0.00  0.00    +0.000 C 
ATOM     14  C20 UNL     1     154.875 162.465 172.408  0.00  0.00    +0.000 C 
ENDBRANCH   5  11
BRANCH   6  15
ATOM     15  O2  UNL     1     153.351 160.185 171.170  0.00  0.00    +0.000 OA
ATOM     16  H22 UNL     1     152.774 160.626 170.492  0.00  0.00    +0.000 HD
ENDBRANCH   6  15
BRANCH   3  17
ATOM     17  C8  UNL     1     158.600 158.476 170.073  0.00  0.00    +0.000 C 
BRANCH  17  18
ATOM     18  C9  UNL     1     159.122 159.199 168.888  0.00  0.00    +0.000 C 
BRANCH  18  19
ATOM     19  C10 UNL     1     159.739 158.413 167.823  0.00  0.00    +0.000 C 
ATOM     20  O1  UNL     1     160.960 158.159 167.746  0.00  0.00    +0.000 OA
ATOM     21  N1  UNL     1     158.923 157.890 166.787  0.00  0.00    +0.000 N 
ATOM     22  C11 UNL     1     159.131 157.090 165.591  0.00  0.00    +0.000 C 
ATOM     23  C12 UNL     1     157.765 157.552 165.086  0.00  0.00    +0.000 C 
ATOM     24  C13 UNL     1     157.502 157.957 166.518  0.00  0.00    +0.000 C 
ENDBRANCH  18  19
ENDBRANCH  17  18
ENDBRANCH   3  17
TORSDOF 6
ENDMDL
MODEL 7
REMARK VINA RESULT:      -5.4      3.592      7.540
REMARK  Name = ./3D_structures\o50_MMV1229204_3D.pdb
REMARK  12 active torsions:
REMARK  status: ('A' for Active; 'I' for Inactive)
REMARK    1  A    between atoms: C1_1  and  C2_2
REMARK    2  A    between atoms: C2_2  and  C3_3
REMARK    3  A    between atoms: C2_2  and  C4_4
REMARK    4  A    between atoms: C2_2  and  C5_5
REMARK    5  A    between atoms: C7_7  and  C8_8
REMARK    6  A    between atoms: C8_8  and  C9_9
REMARK    7  A    between atoms: C9_9  and  C10_10
REMARK    8  A    between atoms: C15_17  and  C17_20
REMARK    9  A    between atoms: C16_18  and  O2_19
REMARK   10  A    between atoms: C17_20  and  C18_21
REMARK   11  A    between atoms: C17_20  and  C19_22
REMARK   12  A    between atoms: C17_20  and  C20_23
REMARK                            x       y       z     vdW  Elec       q    Type
REMARK                         _______ _______ _______ _____ _____    ______ ____
ROOT
ATOM      1  C5  UNL     1     153.184 159.374 168.150  0.00  0.00    +0.000 A 
ATOM      2  C6  UNL     1     154.036 158.416 167.652  0.00  0.00    +0.000 A 
ATOM      3  C7  UNL     1     154.739 158.568 166.451  0.00  0.00    +0.000 A 
ATOM      4  C14 UNL     1     154.536 159.743 165.773  0.00  0.00    +0.000 A 
ATOM      5  C15 UNL     1     153.693 160.750 166.219  0.00  0.00    +0.000 A 
ATOM      6  C16 UNL     1     153.032 160.534 167.411  0.00  0.00    +0.000 A 
ENDROOT
BRANCH   1   8
ATOM      7  C1  UNL     1     152.634 157.648 169.762  0.00  0.00    +0.000 C 
ATOM      8  C2  UNL     1     152.485 159.116 169.422  0.00  0.00    +0.000 C 
ATOM      9  C3  UNL     1     153.103 159.886 170.572  0.00  0.00    +0.000 C 
ATOM     10  C4  UNL     1     151.019 159.433 169.368  0.00  0.00    +0.000 C 
ENDBRANCH   1   8
BRANCH   5  11
ATOM     11  C17 UNL     1     153.521 162.000 165.434  0.00  0.00    +0.000 C 
ATOM     12  C18 UNL     1     152.225 161.975 164.638  0.00  0.00    +0.000 C 
ATOM     13  C19 UNL     1     153.425 163.164 166.388  0.00  0.00    +0.000 C 
ATOM     14  C20 UNL     1     154.720 162.252 164.542  0.00  0.00    +0.000 C 
ENDBRANCH   5  11
BRANCH   6  15
ATOM     15  O2  UNL     1     152.179 161.498 167.906  0.00  0.00    +0.000 OA
ATOM     16  H22 UNL     1     151.876 161.535 168.852  0.00  0.00    +0.000 HD
ENDBRANCH   6  15
BRANCH   3  17
ATOM     17  C8  UNL     1     155.611 157.485 165.956  0.00  0.00    +0.000 C 
BRANCH  17  18
ATOM     18  C9  UNL     1     156.360 156.856 167.070  0.00  0.00    +0.000 C 
BRANCH  18  19
ATOM     19  C10 UNL     1     157.629 157.459 167.469  0.00  0.00    +0.000 C 
ATOM     20  O1  UNL     1     158.657 157.483 166.759  0.00  0.00    +0.000 OA
ATOM     21  N1  UNL     1     157.736 158.066 168.748  0.00  0.00    +0.000 N 
ATOM     22  C11 UNL     1     158.775 158.749 169.501  0.00  0.00    +0.000 C 
ATOM     23  C12 UNL     1     157.960 158.517 170.771  0.00  0.00    +0.000 C 
ATOM     24  C13 UNL     1     156.803 158.243 169.839  0.00  0.00    +0.000 C 
ENDBRANCH  18  19
ENDBRANCH  17  18
ENDBRANCH   3  17
TORSDOF 6
ENDMDL
MODEL 8
REMARK VINA RESULT:      -5.4      4.973      7.703
REMARK  Name = ./3D_structures\o50_MMV1229204_3D.pdb
REMARK  12 active torsions:
REMARK  status: ('A' for Active; 'I' for Inactive)
REMARK    1  A    between atoms: C1_1  and  C2_2
REMARK    2  A    between atoms: C2_2  and  C3_3
REMARK    3  A    between atoms: C2_2  and  C4_4
REMARK    4  A    between atoms: C2_2  and  C5_5
REMARK    5  A    between atoms: C7_7  and  C8_8
REMARK    6  A    between atoms: C8_8  and  C9_9
REMARK    7  A    between atoms: C9_9  and  C10_10
REMARK    8  A    between atoms: C15_17  and  C17_20
REMARK    9  A    between atoms: C16_18  and  O2_19
REMARK   10  A    between atoms: C17_20  and  C18_21
REMARK   11  A    between atoms: C17_20  and  C19_22
REMARK   12  A    between atoms: C17_20  and  C20_23
REMARK                            x       y       z     vdW  Elec       q    Type
REMARK                         _______ _______ _______ _____ _____    ______ ____
ROOT
ATOM      1  C5  UNL     1     152.398 159.014 169.193  0.00  0.00    +0.000 A 
ATOM      2  C6  UNL     1     153.431 158.157 169.495  0.00  0.00    +0.000 A 
ATOM      3  C7  UNL     1     154.621 158.103 168.759  0.00  0.00    +0.000 A 
ATOM      4  C14 UNL     1     154.715 158.963 167.694  0.00  0.00    +0.000 A 
ATOM      5  C15 UNL     1     153.712 159.852 167.335  0.00  0.00    +0.000 A 
ATOM      6  C16 UNL     1     152.567 159.852 168.105  0.00  0.00    +0.000 A 
ENDROOT
BRANCH   1   8
ATOM      7  C1  UNL     1     151.034 157.602 170.617  0.00  0.00    +0.000 C 
ATOM      8  C2  UNL     1     151.184 158.989 170.028  0.00  0.00    +0.000 C 
ATOM      9  C3  UNL     1     151.286 159.944 171.201  0.00  0.00    +0.000 C 
ATOM     10  C4  UNL     1     149.932 159.306 169.263  0.00  0.00    +0.000 C 
ENDBRANCH   1   8
BRANCH   5  11
ATOM     11  C17 UNL     1     153.881 160.758 166.169  0.00  0.00    +0.000 C 
ATOM     12  C18 UNL     1     155.065 160.338 165.313  0.00  0.00    +0.000 C 
ATOM     13  C19 UNL     1     152.655 160.661 165.296  0.00  0.00    +0.000 C 
ATOM     14  C20 UNL     1     153.997 162.203 166.615  0.00  0.00    +0.000 C 
ENDBRANCH   5  11
BRANCH   6  15
ATOM     15  O2  UNL     1     151.535 160.714 167.799  0.00  0.00    +0.000 OA
ATOM     16  H22 UNL     1     151.339 161.038 166.881  0.00  0.00    +0.000 HD
ENDBRANCH   6  15
BRANCH   3  17
ATOM     17  C8  UNL     1     155.675 157.135 169.116  0.00  0.00    +0.000 C 
BRANCH  17  18
ATOM     18  C9  UNL     1     155.987 157.201 170.564  0.00  0.00    +0.000 C 
BRANCH  18  19
ATOM     19  C10 UNL     1     156.927 158.224 171.017  0.00  0.00    +0.000 C 
ATOM     20  O1  UNL     1     158.163 158.176 170.846  0.00  0.00    +0.000 OA
ATOM     21  N1  UNL     1     156.432 159.363 171.704  0.00  0.00    +0.000 N 
ATOM     22  C11 UNL     1     157.005 160.561 172.297  0.00  0.00    +0.000 C 
ATOM     23  C12 UNL     1     155.709 160.749 173.083  0.00  0.00    +0.000 C 
ATOM     24  C13 UNL     1     155.103 159.784 172.091  0.00  0.00    +0.000 C 
ENDBRANCH  18  19
ENDBRANCH  17  18
ENDBRANCH   3  17
TORSDOF 6
ENDMDL
MODEL 9
REMARK VINA RESULT:      -5.4      4.336      7.163
REMARK  Name = ./3D_structures\o50_MMV1229204_3D.pdb
REMARK  12 active torsions:
REMARK  status: ('A' for Active; 'I' for Inactive)
REMARK    1  A    between atoms: C1_1  and  C2_2
REMARK    2  A    between atoms: C2_2  and  C3_3
REMARK    3  A    between atoms: C2_2  and  C4_4
REMARK    4  A    between atoms: C2_2  and  C5_5
REMARK    5  A    between atoms: C7_7  and  C8_8
REMARK    6  A    between atoms: C8_8  and  C9_9
REMARK    7  A    between atoms: C9_9  and  C10_10
REMARK    8  A    between atoms: C15_17  and  C17_20
REMARK    9  A    between atoms: C16_18  and  O2_19
REMARK   10  A    between atoms: C17_20  and  C18_21
REMARK   11  A    between atoms: C17_20  and  C19_22
REMARK   12  A    between atoms: C17_20  and  C20_23
REMARK                            x       y       z     vdW  Elec       q    Type
REMARK                         _______ _______ _______ _____ _____    ______ ____
ROOT
ATOM      1  C5  UNL     1     154.741 159.589 167.604  0.00  0.00    +0.000 A 
ATOM      2  C6  UNL     1     153.590 159.000 168.078  0.00  0.00    +0.000 A 
ATOM      3  C7  UNL     1     153.486 158.448 169.360  0.00  0.00    +0.000 A 
ATOM      4  C14 UNL     1     154.609 158.519 170.145  0.00  0.00    +0.000 A 
ATOM      5  C15 UNL     1     155.799 159.099 169.731  0.00  0.00    +0.000 A 
ATOM      6  C16 UNL     1     155.831 159.624 168.455  0.00  0.00    +0.000 A 
ENDROOT
BRANCH   1   8
ATOM      7  C1  UNL     1     153.350 160.036 165.668  0.00  0.00    +0.000 C 
ATOM      8  C2  UNL     1     154.750 160.137 166.236  0.00  0.00    +0.000 C 
ATOM      9  C3  UNL     1     155.113 161.609 166.220  0.00  0.00    +0.000 C 
ATOM     10  C4  UNL     1     155.679 159.406 165.311  0.00  0.00    +0.000 C 
ENDBRANCH   1   8
BRANCH   5  11
ATOM     11  C17 UNL     1     156.978 159.143 170.634  0.00  0.00    +0.000 C 
ATOM     12  C18 UNL     1     158.162 158.405 170.029  0.00  0.00    +0.000 C 
ATOM     13  C19 UNL     1     157.402 160.580 170.811  0.00  0.00    +0.000 C 
ATOM     14  C20 UNL     1     156.629 158.609 172.010  0.00  0.00    +0.000 C 
ENDBRANCH   5  11
BRANCH   6  15
ATOM     15  O2  UNL     1     156.986 160.215 167.986  0.00  0.00    +0.000 OA
ATOM     16  H22 UNL     1     157.027 161.139 167.624  0.00  0.00    +0.000 HD
ENDBRANCH   6  15
BRANCH   3  17
ATOM     17  C8  UNL     1     152.233 157.800 169.792  0.00  0.00    +0.000 C 
BRANCH  17  18
ATOM     18  C9  UNL     1     151.298 158.790 170.378  0.00  0.00    +0.000 C 
BRANCH  18  19
ATOM     19  C10 UNL     1     150.043 159.046 169.677  0.00  0.00    +0.000 C 
ATOM     20  O1  UNL     1     149.015 158.345 169.783  0.00  0.00    +0.000 OA
ATOM     21  N1  UNL     1     149.953 160.162 168.804  0.00  0.00    +0.000 N 
ATOM     22  C11 UNL     1     148.931 160.747 167.951  0.00  0.00    +0.000 C 
ATOM     23  C12 UNL     1     150.030 161.513 167.218  0.00  0.00    +0.000 C 
ATOM     24  C13 UNL     1     150.892 161.192 168.416  0.00  0.00    +0.000 C 
ENDBRANCH  18  19
ENDBRANCH  17  18
ENDBRANCH   3  17
TORSDOF 6
ENDMDL
