MODEL 1
REMARK VINA RESULT:      -5.5      0.000      0.000
REMARK  Name = ./3D_structures\o52_MMV1578556_3D.pdb
REMARK  5 active torsions:
REMARK  status: ('A' for Active; 'I' for Inactive)
REMARK    1  A    between atoms: C1_1  and  C2_2
REMARK    2  A    between atoms: C5_5  and  O1_6
REMARK    3  A    between atoms: C6_7  and  C7_8
REMARK    4  A    between atoms: C6_7  and  C8_9
REMARK    5  A    between atoms: C12_13  and  C13_14
REMARK                            x       y       z     vdW  Elec       q    Type
REMARK                         _______ _______ _______ _____ _____    ______ ____
ROOT
ATOM      1  C1  UNL     1     153.892 159.448 165.873  0.00  0.00    +0.000 C 
ATOM      2  C2  UNL     1     154.194 158.692 167.117  0.00  0.00    +0.000 C 
ATOM      3  C3  UNL     1     155.350 157.757 166.925  0.00  0.00    +0.000 C 
ATOM      4  C4  UNL     1     155.792 157.044 168.141  0.00  0.00    +0.000 C 
ATOM      5  C5  UNL     1     155.705 157.781 169.424  0.00  0.00    +0.000 C 
ATOM      6  C6  UNL     1     156.894 158.615 169.765  0.00  0.00    +0.000 C 
ATOM      7  C7  UNL     1     157.384 158.368 171.200  0.00  0.00    +0.000 C 
ATOM      8  C8  UNL     1     158.104 158.335 168.913  0.00  0.00    +0.000 C 
ATOM      9  C9  UNL     1     156.487 160.074 169.649  0.00  0.00    +0.000 C 
ATOM     10  C10 UNL     1     155.533 160.427 170.791  0.00  0.00    +0.000 C 
ATOM     11  C11 UNL     1     154.388 159.455 170.744  0.00  0.00    +0.000 C 
ATOM     12  C12 UNL     1     154.413 158.585 169.522  0.00  0.00    +0.000 C 
ATOM     13  C13 UNL     1     153.202 157.703 169.523  0.00  0.00    +0.000 C 
ATOM     14  C14 UNL     1     154.422 159.542 168.320  0.00  0.00    +0.000 C 
ATOM     15  C15 UNL     1     155.722 160.264 168.345  0.00  0.00    +0.000 C 
ENDROOT
BRANCH   5  16
ATOM     16  O1  UNL     1     155.597 156.809 170.451  0.00  0.00    +0.000 OA
ATOM     17  H9  UNL     1     154.879 157.003 171.073  0.00  0.00    +0.000 HD
ENDBRANCH   5  16
TORSDOF 1
ENDMDL
MODEL 2
REMARK VINA RESULT:      -5.3      1.693      2.785
REMARK  Name = ./3D_structures\o52_MMV1578556_3D.pdb
REMARK  5 active torsions:
REMARK  status: ('A' for Active; 'I' for Inactive)
REMARK    1  A    between atoms: C1_1  and  C2_2
REMARK    2  A    between atoms: C5_5  and  O1_6
REMARK    3  A    between atoms: C6_7  and  C7_8
REMARK    4  A    between atoms: C6_7  and  C8_9
REMARK    5  A    between atoms: C12_13  and  C13_14
REMARK                            x       y       z     vdW  Elec       q    Type
REMARK                         _______ _______ _______ _____ _____    ______ ____
ROOT
ATOM      1  C1  UNL     1     152.923 159.495 169.929  0.00  0.00    +0.000 C 
ATOM      2  C2  UNL     1     154.288 159.173 170.426  0.00  0.00    +0.000 C 
ATOM      3  C3  UNL     1     154.692 157.777 170.058  0.00  0.00    +0.000 C 
ATOM      4  C4  UNL     1     156.076 157.408 170.414  0.00  0.00    +0.000 C 
ATOM      5  C5  UNL     1     157.104 158.471 170.320  0.00  0.00    +0.000 C 
ATOM      6  C6  UNL     1     157.741 158.628 168.979  0.00  0.00    +0.000 C 
ATOM      7  C7  UNL     1     159.274 158.674 169.066  0.00  0.00    +0.000 C 
ATOM      8  C8  UNL     1     157.463 157.490 168.032  0.00  0.00    +0.000 C 
ATOM      9  C9  UNL     1     157.260 159.942 168.388  0.00  0.00    +0.000 C 
ATOM     10  C10 UNL     1     157.889 161.105 169.159  0.00  0.00    +0.000 C 
ATOM     11  C11 UNL     1     157.558 160.917 170.613  0.00  0.00    +0.000 C 
ATOM     12  C12 UNL     1     156.582 159.802 170.849  0.00  0.00    +0.000 C 
ATOM     13  C13 UNL     1     156.258 159.736 172.309  0.00  0.00    +0.000 C 
ATOM     14  C14 UNL     1     155.344 160.135 170.003  0.00  0.00    +0.000 C 
ATOM     15  C15 UNL     1     155.752 160.039 168.575  0.00  0.00    +0.000 C 
ENDROOT
BRANCH   5  16
ATOM     16  O1  UNL     1     158.147 158.117 171.213  0.00  0.00    +0.000 OA
ATOM     17  H9  UNL     1     158.393 157.182 171.146  0.00  0.00    +0.000 HD
ENDBRANCH   5  16
TORSDOF 1
ENDMDL
MODEL 3
REMARK VINA RESULT:      -5.2      1.685      3.537
REMARK  Name = ./3D_structures\o52_MMV1578556_3D.pdb
REMARK  5 active torsions:
REMARK  status: ('A' for Active; 'I' for Inactive)
REMARK    1  A    between atoms: C1_1  and  C2_2
REMARK    2  A    between atoms: C5_5  and  O1_6
REMARK    3  A    between atoms: C6_7  and  C7_8
REMARK    4  A    between atoms: C6_7  and  C8_9
REMARK    5  A    between atoms: C12_13  and  C13_14
REMARK                            x       y       z     vdW  Elec       q    Type
REMARK                         _______ _______ _______ _____ _____    ______ ____
ROOT
ATOM      1  C1  UNL     1     157.713 156.386 166.394  0.00  0.00    +0.000 C 
ATOM      2  C2  UNL     1     157.631 157.636 167.196  0.00  0.00    +0.000 C 
ATOM      3  C3  UNL     1     156.585 158.566 166.660  0.00  0.00    +0.000 C 
ATOM      4  C4  UNL     1     156.358 159.786 167.460  0.00  0.00    +0.000 C 
ATOM      5  C5  UNL     1     156.480 159.660 168.931  0.00  0.00    +0.000 C 
ATOM      6  C6  UNL     1     155.236 159.244 169.644  0.00  0.00    +0.000 C 
ATOM      7  C7  UNL     1     154.925 160.149 170.845  0.00  0.00    +0.000 C 
ATOM      8  C8  UNL     1     153.992 159.319 168.798  0.00  0.00    +0.000 C 
ATOM      9  C9  UNL     1     155.446 157.831 170.158  0.00  0.00    +0.000 C 
ATOM     10  C10 UNL     1     156.458 157.853 171.305  0.00  0.00    +0.000 C 
ATOM     11  C11 UNL     1     157.704 158.524 170.799  0.00  0.00    +0.000 C 
ATOM     12  C12 UNL     1     157.666 158.785 169.322  0.00  0.00    +0.000 C 
ATOM     13  C13 UNL     1     158.970 159.386 168.897  0.00  0.00    +0.000 C 
ATOM     14  C14 UNL     1     157.420 157.423 168.656  0.00  0.00    +0.000 C 
ATOM     15  C15 UNL     1     156.050 156.989 169.040  0.00  0.00    +0.000 C 
ENDROOT
BRANCH   5  16
ATOM     16  O1  UNL     1     156.808 160.947 169.430  0.00  0.00    +0.000 OA
ATOM     17  H9  UNL     1     156.326 161.655 168.976  0.00  0.00    +0.000 HD
ENDBRANCH   5  16
TORSDOF 1
ENDMDL
MODEL 4
REMARK VINA RESULT:      -5.2      0.998      3.543
REMARK  Name = ./3D_structures\o52_MMV1578556_3D.pdb
REMARK  5 active torsions:
REMARK  status: ('A' for Active; 'I' for Inactive)
REMARK    1  A    between atoms: C1_1  and  C2_2
REMARK    2  A    between atoms: C5_5  and  O1_6
REMARK    3  A    between atoms: C6_7  and  C7_8
REMARK    4  A    between atoms: C6_7  and  C8_9
REMARK    5  A    between atoms: C12_13  and  C13_14
REMARK                            x       y       z     vdW  Elec       q    Type
REMARK                         _______ _______ _______ _____ _____    ______ ____
ROOT
ATOM      1  C1  UNL     1     159.333 160.060 169.033  0.00  0.00    +0.000 C 
ATOM      2  C2  UNL     1     158.241 159.056 169.142  0.00  0.00    +0.000 C 
ATOM      3  C3  UNL     1     157.768 158.912 170.557  0.00  0.00    +0.000 C 
ATOM      4  C4  UNL     1     156.609 158.015 170.745  0.00  0.00    +0.000 C 
ATOM      5  C5  UNL     1     155.589 157.998 169.670  0.00  0.00    +0.000 C 
ATOM      6  C6  UNL     1     154.514 159.027 169.791  0.00  0.00    +0.000 C 
ATOM      7  C7  UNL     1     153.111 158.422 169.629  0.00  0.00    +0.000 C 
ATOM      8  C8  UNL     1     154.466 159.707 171.134  0.00  0.00    +0.000 C 
ATOM      9  C9  UNL     1     154.721 160.046 168.684  0.00  0.00    +0.000 C 
ATOM     10  C10 UNL     1     154.379 159.408 167.336  0.00  0.00    +0.000 C 
ATOM     11  C11 UNL     1     155.208 158.162 167.199  0.00  0.00    +0.000 C 
ATOM     12  C12 UNL     1     156.231 158.021 168.288  0.00  0.00    +0.000 C 
ATOM     13  C13 UNL     1     157.055 156.798 168.031  0.00  0.00    +0.000 C 
ATOM     14  C14 UNL     1     157.080 159.301 168.241  0.00  0.00    +0.000 C 
ATOM     15  C15 UNL     1     156.196 160.428 168.642  0.00  0.00    +0.000 C 
ENDROOT
BRANCH   5  16
ATOM     16  O1  UNL     1     154.939 156.739 169.739  0.00  0.00    +0.000 OA
ATOM     17  H9  UNL     1     154.337 156.590 168.994  0.00  0.00    +0.000 HD
ENDBRANCH   5  16
TORSDOF 1
ENDMDL
MODEL 5
REMARK VINA RESULT:      -5.2      1.048      3.205
REMARK  Name = ./3D_structures\o52_MMV1578556_3D.pdb
REMARK  5 active torsions:
REMARK  status: ('A' for Active; 'I' for Inactive)
REMARK    1  A    between atoms: C1_1  and  C2_2
REMARK    2  A    between atoms: C5_5  and  O1_6
REMARK    3  A    between atoms: C6_7  and  C7_8
REMARK    4  A    between atoms: C6_7  and  C8_9
REMARK    5  A    between atoms: C12_13  and  C13_14
REMARK                            x       y       z     vdW  Elec       q    Type
REMARK                         _______ _______ _______ _____ _____    ______ ____
ROOT
ATOM      1  C1  UNL     1     154.677 161.936 170.785  0.00  0.00    +0.000 C 
ATOM      2  C2  UNL     1     155.013 160.488 170.764  0.00  0.00    +0.000 C 
ATOM      3  C3  UNL     1     153.989 159.697 170.005  0.00  0.00    +0.000 C 
ATOM      4  C4  UNL     1     154.299 158.263 169.839  0.00  0.00    +0.000 C 
ATOM      5  C5  UNL     1     155.724 157.896 169.663  0.00  0.00    +0.000 C 
ATOM      6  C6  UNL     1     156.223 157.927 168.257  0.00  0.00    +0.000 C 
ATOM      7  C7  UNL     1     156.981 156.643 167.882  0.00  0.00    +0.000 C 
ATOM      8  C8  UNL     1     155.134 158.022 167.221  0.00  0.00    +0.000 C 
ATOM      9  C9  UNL     1     157.183 159.097 168.130  0.00  0.00    +0.000 C 
ATOM     10  C10 UNL     1     158.467 158.786 168.901  0.00  0.00    +0.000 C 
ATOM     11  C11 UNL     1     158.080 158.447 170.313  0.00  0.00    +0.000 C 
ATOM     12  C12 UNL     1     156.627 158.697 170.594  0.00  0.00    +0.000 C 
ATOM     13  C13 UNL     1     156.349 158.403 172.035  0.00  0.00    +0.000 C 
ATOM     14  C14 UNL     1     156.377 160.174 170.253  0.00  0.00    +0.000 C 
ATOM     15  C15 UNL     1     156.550 160.320 168.783  0.00  0.00    +0.000 C 
ENDROOT
BRANCH   5  16
ATOM     16  O1  UNL     1     155.861 156.554 170.101  0.00  0.00    +0.000 OA
ATOM     17  H9  UNL     1     156.080 155.947 169.378  0.00  0.00    +0.000 HD
ENDBRANCH   5  16
TORSDOF 1
ENDMDL
MODEL 6
REMARK VINA RESULT:      -5.1      1.720      4.168
REMARK  Name = ./3D_structures\o52_MMV1578556_3D.pdb
REMARK  5 active torsions:
REMARK  status: ('A' for Active; 'I' for Inactive)
REMARK    1  A    between atoms: C1_1  and  C2_2
REMARK    2  A    between atoms: C5_5  and  O1_6
REMARK    3  A    between atoms: C6_7  and  C7_8
REMARK    4  A    between atoms: C6_7  and  C8_9
REMARK    5  A    between atoms: C12_13  and  C13_14
REMARK                            x       y       z     vdW  Elec       q    Type
REMARK                         _______ _______ _______ _____ _____    ______ ____
ROOT
ATOM      1  C1  UNL     1     158.117 158.422 170.557  0.00  0.00    +0.000 C 
ATOM      2  C2  UNL     1     157.385 157.969 169.344  0.00  0.00    +0.000 C 
ATOM      3  C3  UNL     1     155.989 157.536 169.675  0.00  0.00    +0.000 C 
ATOM      4  C4  UNL     1     155.151 157.173 168.514  0.00  0.00    +0.000 C 
ATOM      5  C5  UNL     1     155.357 157.945 167.266  0.00  0.00    +0.000 C 
ATOM      6  C6  UNL     1     154.560 159.202 167.152  0.00  0.00    +0.000 C 
ATOM      7  C7  UNL     1     153.833 159.308 165.802  0.00  0.00    +0.000 C 
ATOM      8  C8  UNL     1     153.457 159.322 168.170  0.00  0.00    +0.000 C 
ATOM      9  C9  UNL     1     155.520 160.373 167.265  0.00  0.00    +0.000 C 
ATOM     10  C10 UNL     1     156.382 160.447 166.004  0.00  0.00    +0.000 C 
ATOM     11  C11 UNL     1     157.047 159.110 165.829  0.00  0.00    +0.000 C 
ATOM     12  C12 UNL     1     156.837 158.198 167.002  0.00  0.00    +0.000 C 
ATOM     13  C13 UNL     1     157.591 156.924 166.773  0.00  0.00    +0.000 C 
ATOM     14  C14 UNL     1     157.359 158.958 168.230  0.00  0.00    +0.000 C 
ATOM     15  C15 UNL     1     156.458 160.123 168.440  0.00  0.00    +0.000 C 
ENDROOT
BRANCH   5  16
ATOM     16  O1  UNL     1     154.941 157.115 166.194  0.00  0.00    +0.000 OA
ATOM     17  H9  UNL     1     155.347 157.366 165.350  0.00  0.00    +0.000 HD
ENDBRANCH   5  16
TORSDOF 1
ENDMDL
MODEL 7
REMARK VINA RESULT:      -5.1      1.630      2.396
REMARK  Name = ./3D_structures\o52_MMV1578556_3D.pdb
REMARK  5 active torsions:
REMARK  status: ('A' for Active; 'I' for Inactive)
REMARK    1  A    between atoms: C1_1  and  C2_2
REMARK    2  A    between atoms: C5_5  and  O1_6
REMARK    3  A    between atoms: C6_7  and  C7_8
REMARK    4  A    between atoms: C6_7  and  C8_9
REMARK    5  A    between atoms: C12_13  and  C13_14
REMARK                            x       y       z     vdW  Elec       q    Type
REMARK                         _______ _______ _______ _____ _____    ______ ____
ROOT
ATOM      1  C1  UNL     1     156.617 157.256 166.386  0.00  0.00    +0.000 C 
ATOM      2  C2  UNL     1     156.819 157.467 167.844  0.00  0.00    +0.000 C 
ATOM      3  C3  UNL     1     158.224 157.892 168.148  0.00  0.00    +0.000 C 
ATOM      4  C4  UNL     1     158.487 158.231 169.561  0.00  0.00    +0.000 C 
ATOM      5  C5  UNL     1     157.390 158.884 170.314  0.00  0.00    +0.000 C 
ATOM      6  C6  UNL     1     157.340 160.372 170.210  0.00  0.00    +0.000 C 
ATOM      7  C7  UNL     1     157.210 161.046 171.585  0.00  0.00    +0.000 C 
ATOM      8  C8  UNL     1     158.581 160.987 169.618  0.00  0.00    +0.000 C 
ATOM      9  C9  UNL     1     156.118 160.739 169.386  0.00  0.00    +0.000 C 
ATOM     10  C10 UNL     1     154.853 160.450 170.197  0.00  0.00    +0.000 C 
ATOM     11  C11 UNL     1     154.907 159.010 170.625  0.00  0.00    +0.000 C 
ATOM     12  C12 UNL     1     156.038 158.256 169.990  0.00  0.00    +0.000 C 
ATOM     13  C13 UNL     1     155.970 156.822 170.415  0.00  0.00    +0.000 C 
ATOM     14  C14 UNL     1     155.855 158.413 168.473  0.00  0.00    +0.000 C 
ATOM     15  C15 UNL     1     156.076 159.848 168.151  0.00  0.00    +0.000 C 
ENDROOT
BRANCH   5  16
ATOM     16  O1  UNL     1     157.599 158.591 171.685  0.00  0.00    +0.000 OA
ATOM     17  H9  UNL     1     158.346 159.082 172.060  0.00  0.00    +0.000 HD
ENDBRANCH   5  16
TORSDOF 1
ENDMDL
MODEL 8
REMARK VINA RESULT:      -5.1     14.214     15.760
REMARK  Name = ./3D_structures\o52_MMV1578556_3D.pdb
REMARK  5 active torsions:
REMARK  status: ('A' for Active; 'I' for Inactive)
REMARK    1  A    between atoms: C1_1  and  C2_2
REMARK    2  A    between atoms: C5_5  and  O1_6
REMARK    3  A    between atoms: C6_7  and  C7_8
REMARK    4  A    between atoms: C6_7  and  C8_9
REMARK    5  A    between atoms: C12_13  and  C13_14
REMARK                            x       y       z     vdW  Elec       q    Type
REMARK                         _______ _______ _______ _____ _____    ______ ____
ROOT
ATOM      1  C1  UNL     1     164.337 145.558 167.775  0.00  0.00    +0.000 C 
ATOM      2  C2  UNL     1     163.574 144.700 168.721  0.00  0.00    +0.000 C 
ATOM      3  C3  UNL     1     164.387 144.362 169.934  0.00  0.00    +0.000 C 
ATOM      4  C4  UNL     1     163.671 143.604 170.980  0.00  0.00    +0.000 C 
ATOM      5  C5  UNL     1     162.235 143.915 171.175  0.00  0.00    +0.000 C 
ATOM      6  C6  UNL     1     161.944 145.034 172.118  0.00  0.00    +0.000 C 
ATOM      7  C7  UNL     1     160.878 144.656 173.158  0.00  0.00    +0.000 C 
ATOM      8  C8  UNL     1     163.128 145.459 172.948  0.00  0.00    +0.000 C 
ATOM      9  C9  UNL     1     161.418 146.203 171.304  0.00  0.00    +0.000 C 
ATOM     10  C10 UNL     1     160.017 145.872 170.788  0.00  0.00    +0.000 C 
ATOM     11  C11 UNL     1     160.105 144.575 170.033  0.00  0.00    +0.000 C 
ATOM     12  C12 UNL     1     161.518 144.107 169.843  0.00  0.00    +0.000 C 
ATOM     13  C13 UNL     1     161.513 142.855 169.023  0.00  0.00    +0.000 C 
ATOM     14  C14 UNL     1     162.253 145.253 169.132  0.00  0.00    +0.000 C 
ATOM     15  C15 UNL     1     162.314 146.393 170.086  0.00  0.00    +0.000 C 
ENDROOT
BRANCH   5  16
ATOM     16  O1  UNL     1     161.635 142.759 171.738  0.00  0.00    +0.000 OA
ATOM     17  H9  UNL     1     162.113 142.435 172.517  0.00  0.00    +0.000 HD
ENDBRANCH   5  16
TORSDOF 1
ENDMDL
MODEL 9
REMARK VINA RESULT:      -5.0      1.939      3.754
REMARK  Name = ./3D_structures\o52_MMV1578556_3D.pdb
REMARK  5 active torsions:
REMARK  status: ('A' for Active; 'I' for Inactive)
REMARK    1  A    between atoms: C1_1  and  C2_2
REMARK    2  A    between atoms: C5_5  and  O1_6
REMARK    3  A    between atoms: C6_7  and  C7_8
REMARK    4  A    between atoms: C6_7  and  C8_9
REMARK    5  A    between atoms: C12_13  and  C13_14
REMARK                            x       y       z     vdW  Elec       q    Type
REMARK                         _______ _______ _______ _____ _____    ______ ____
ROOT
ATOM      1  C1  UNL     1     160.612 158.235 167.686  0.00  0.00    +0.000 C 
ATOM      2  C2  UNL     1     159.256 158.840 167.780  0.00  0.00    +0.000 C 
ATOM      3  C3  UNL     1     158.198 157.895 167.293  0.00  0.00    +0.000 C 
ATOM      4  C4  UNL     1     156.809 158.370 167.452  0.00  0.00    +0.000 C 
ATOM      5  C5  UNL     1     156.508 159.185 168.653  0.00  0.00    +0.000 C 
ATOM      6  C6  UNL     1     156.134 158.411 169.873  0.00  0.00    +0.000 C 
ATOM      7  C7  UNL     1     154.855 158.949 170.533  0.00  0.00    +0.000 C 
ATOM      8  C8  UNL     1     155.826 156.961 169.609  0.00  0.00    +0.000 C 
ATOM      9  C9  UNL     1     157.272 158.540 170.871  0.00  0.00    +0.000 C 
ATOM     10  C10 UNL     1     157.308 159.968 171.418  0.00  0.00    +0.000 C 
ATOM     11  C11 UNL     1     157.399 160.902 170.244  0.00  0.00    +0.000 C 
ATOM     12  C12 UNL     1     157.621 160.185 168.945  0.00  0.00    +0.000 C 
ATOM     13  C13 UNL     1     157.771 161.193 167.848  0.00  0.00    +0.000 C 
ATOM     14  C14 UNL     1     158.897 159.350 169.133  0.00  0.00    +0.000 C 
ATOM     15  C15 UNL     1     158.589 158.302 170.143  0.00  0.00    +0.000 C 
ENDROOT
BRANCH   5  16
ATOM     16  O1  UNL     1     155.382 159.987 168.335  0.00  0.00    +0.000 OA
ATOM     17  H9  UNL     1     155.623 160.788 167.845  0.00  0.00    +0.000 HD
ENDBRANCH   5  16
TORSDOF 1
ENDMDL
