MODEL 1
REMARK VINA RESULT:      -6.0      0.000      0.000
REMARK  Name = ./3D_structures\o53_MMV1663457_3D.pdb
REMARK  5 active torsions:
REMARK  status: ('A' for Active; 'I' for Inactive)
REMARK    1  A    between atoms: C1_2  and  C9_11
REMARK    2  A    between atoms: N1_3  and  C2_4
REMARK    3  A    between atoms: C2_4  and  C3_5
REMARK    4  A    between atoms: C10_12  and  C16_20
REMARK    5  A    between atoms: C16_20  and  C17_21
REMARK                            x       y       z     vdW  Elec       q    Type
REMARK                         _______ _______ _______ _____ _____    ______ ____
ROOT
ATOM      1  O1  UNL     1     149.489 166.253 167.480  0.00  0.00    +0.000 OA
ATOM      2  C1  UNL     1     149.091 165.543 166.521  0.00  0.00    +0.000 C 
ATOM      3  N1  UNL     1     150.023 165.380 165.461  0.00  0.00    +0.000 N 
ATOM      4  H1  UNL     1     149.770 164.764 164.677  0.00  0.00    +0.000 HD
ENDROOT
BRANCH   2   5
ATOM      5  C9  UNL     1     147.758 164.967 166.587  0.00  0.00    +0.000 A 
ATOM      6  C10 UNL     1     147.513 163.701 167.070  0.00  0.00    +0.000 A 
ATOM      7  N2  UNL     1     146.174 163.541 166.987  0.00  0.00    +0.000 NA
ATOM      8  C11 UNL     1     145.593 164.637 166.485  0.00  0.00    +0.000 A 
ATOM      9  N3  UNL     1     146.557 165.535 166.231  0.00  0.00    +0.000 N 
ATOM     10  C12 UNL     1     146.247 166.758 165.725  0.00  0.00    +0.000 A 
ATOM     11  C13 UNL     1     144.957 167.096 165.463  0.00  0.00    +0.000 A 
ATOM     12  C14 UNL     1     143.940 166.216 165.703  0.00  0.00    +0.000 A 
ATOM     13  C15 UNL     1     144.282 164.984 166.219  0.00  0.00    +0.000 A 
BRANCH   6  14
ATOM     14  C16 UNL     1     148.442 162.668 167.605  0.00  0.00    +0.000 C 
ATOM     15  C17 UNL     1     148.862 162.854 169.010  0.00  0.00    +0.000 C 
ENDBRANCH   6  14
ENDBRANCH   2   5
BRANCH   3  16
ATOM     16  C2  UNL     1     151.340 166.036 165.508  0.00  0.00    +0.000 C 
BRANCH  16  17
ATOM     17  C3  UNL     1     152.373 165.335 164.758  0.00  0.00    +0.000 A 
ATOM     18  C4  UNL     1     153.622 165.962 164.643  0.00  0.00    +0.000 A 
ATOM     19  C5  UNL     1     154.665 165.395 163.948  0.00  0.00    +0.000 A 
ATOM     20  C6  UNL     1     154.437 164.172 163.359  0.00  0.00    +0.000 A 
ATOM     21  C7  UNL     1     153.216 163.545 163.465  0.00  0.00    +0.000 A 
ATOM     22  C8  UNL     1     152.195 164.115 164.154  0.00  0.00    +0.000 A 
ENDBRANCH  16  17
ENDBRANCH   3  16
TORSDOF 4
ENDMDL
MODEL 2
REMARK VINA RESULT:      -5.7      7.416     10.064
REMARK  Name = ./3D_structures\o53_MMV1663457_3D.pdb
REMARK  5 active torsions:
REMARK  status: ('A' for Active; 'I' for Inactive)
REMARK    1  A    between atoms: C1_2  and  C9_11
REMARK    2  A    between atoms: N1_3  and  C2_4
REMARK    3  A    between atoms: C2_4  and  C3_5
REMARK    4  A    between atoms: C10_12  and  C16_20
REMARK    5  A    between atoms: C16_20  and  C17_21
REMARK                            x       y       z     vdW  Elec       q    Type
REMARK                         _______ _______ _______ _____ _____    ______ ____
ROOT
ATOM      1  O1  UNL     1     154.600 157.843 168.314  0.00  0.00    +0.000 OA
ATOM      2  C1  UNL     1     155.448 158.735 168.570  0.00  0.00    +0.000 C 
ATOM      3  N1  UNL     1     155.848 159.527 167.459  0.00  0.00    +0.000 N 
ATOM      4  H1  UNL     1     156.499 160.306 167.622  0.00  0.00    +0.000 HD
ENDROOT
BRANCH   2   5
ATOM      5  C9  UNL     1     155.922 158.875 169.937  0.00  0.00    +0.000 A 
ATOM      6  C10 UNL     1     157.201 158.538 170.323  0.00  0.00    +0.000 A 
ATOM      7  N2  UNL     1     157.262 158.823 171.642  0.00  0.00    +0.000 NA
ATOM      8  C11 UNL     1     156.097 159.316 172.077  0.00  0.00    +0.000 A 
ATOM      9  N3  UNL     1     155.252 159.358 171.036  0.00  0.00    +0.000 N 
ATOM     10  C12 UNL     1     153.988 159.836 171.189  0.00  0.00    +0.000 A 
ATOM     11  C13 UNL     1     153.553 160.277 172.399  0.00  0.00    +0.000 A 
ATOM     12  C14 UNL     1     154.376 160.254 173.489  0.00  0.00    +0.000 A 
ATOM     13  C15 UNL     1     155.652 159.767 173.305  0.00  0.00    +0.000 A 
BRANCH   6  14
ATOM     14  C16 UNL     1     158.341 157.992 169.536  0.00  0.00    +0.000 C 
ATOM     15  C17 UNL     1     159.243 158.998 168.936  0.00  0.00    +0.000 C 
ENDBRANCH   6  14
ENDBRANCH   2   5
BRANCH   3  16
ATOM     16  C2  UNL     1     155.305 159.267 166.115  0.00  0.00    +0.000 C 
BRANCH  16  17
ATOM     17  C3  UNL     1     154.433 160.323 165.621  0.00  0.00    +0.000 A 
ATOM     18  C4  UNL     1     153.052 160.075 165.626  0.00  0.00    +0.000 A 
ATOM     19  C5  UNL     1     152.139 160.997 165.172  0.00  0.00    +0.000 A 
ATOM     20  C6  UNL     1     152.634 162.193 164.702  0.00  0.00    +0.000 A 
ATOM     21  C7  UNL     1     153.986 162.451 164.692  0.00  0.00    +0.000 A 
ATOM     22  C8  UNL     1     154.877 161.532 165.144  0.00  0.00    +0.000 A 
ENDBRANCH  16  17
ENDBRANCH   3  16
TORSDOF 4
ENDMDL
MODEL 3
REMARK VINA RESULT:      -5.6      9.639     11.980
REMARK  Name = ./3D_structures\o53_MMV1663457_3D.pdb
REMARK  5 active torsions:
REMARK  status: ('A' for Active; 'I' for Inactive)
REMARK    1  A    between atoms: C1_2  and  C9_11
REMARK    2  A    between atoms: N1_3  and  C2_4
REMARK    3  A    between atoms: C2_4  and  C3_5
REMARK    4  A    between atoms: C10_12  and  C16_20
REMARK    5  A    between atoms: C16_20  and  C17_21
REMARK                            x       y       z     vdW  Elec       q    Type
REMARK                         _______ _______ _______ _____ _____    ______ ____
ROOT
ATOM      1  O1  UNL     1     156.949 160.603 167.646  0.00  0.00    +0.000 OA
ATOM      2  C1  UNL     1     157.009 159.441 168.125  0.00  0.00    +0.000 C 
ATOM      3  N1  UNL     1     157.396 159.369 169.491  0.00  0.00    +0.000 N 
ATOM      4  H1  UNL     1     157.409 158.447 169.947  0.00  0.00    +0.000 HD
ENDROOT
BRANCH   2   5
ATOM      5  C9  UNL     1     156.684 158.315 167.264  0.00  0.00    +0.000 A 
ATOM      6  C10 UNL     1     155.398 157.854 167.092  0.00  0.00    +0.000 A 
ATOM      7  N2  UNL     1     155.502 156.827 166.220  0.00  0.00    +0.000 NA
ATOM      8  C11 UNL     1     156.774 156.642 165.852  0.00  0.00    +0.000 A 
ATOM      9  N3  UNL     1     157.525 157.555 166.487  0.00  0.00    +0.000 N 
ATOM     10  C12 UNL     1     158.868 157.608 166.284  0.00  0.00    +0.000 A 
ATOM     11  C13 UNL     1     159.480 156.737 165.439  0.00  0.00    +0.000 A 
ATOM     12  C14 UNL     1     158.759 155.788 164.771  0.00  0.00    +0.000 A 
ATOM     13  C15 UNL     1     157.399 155.758 164.992  0.00  0.00    +0.000 A 
BRANCH   6  14
ATOM     14  C16 UNL     1     154.111 158.323 167.675  0.00  0.00    +0.000 C 
ATOM     15  C17 UNL     1     153.759 157.749 168.991  0.00  0.00    +0.000 C 
ENDBRANCH   6  14
ENDBRANCH   2   5
BRANCH   3  16
ATOM     16  C2  UNL     1     157.721 160.589 170.247  0.00  0.00    +0.000 C 
BRANCH  16  17
ATOM     17  C3  UNL     1     157.045 160.679 171.534  0.00  0.00    +0.000 A 
ATOM     18  C4  UNL     1     156.297 159.567 171.948  0.00  0.00    +0.000 A 
ATOM     19  C5  UNL     1     155.610 159.549 173.140  0.00  0.00    +0.000 A 
ATOM     20  C6  UNL     1     155.682 160.677 173.924  0.00  0.00    +0.000 A 
ATOM     21  C7  UNL     1     156.413 161.775 173.530  0.00  0.00    +0.000 A 
ATOM     22  C8  UNL     1     157.087 161.781 172.352  0.00  0.00    +0.000 A 
ENDBRANCH  16  17
ENDBRANCH   3  16
TORSDOF 4
ENDMDL
MODEL 4
REMARK VINA RESULT:      -5.6      9.348     10.671
REMARK  Name = ./3D_structures\o53_MMV1663457_3D.pdb
REMARK  5 active torsions:
REMARK  status: ('A' for Active; 'I' for Inactive)
REMARK    1  A    between atoms: C1_2  and  C9_11
REMARK    2  A    between atoms: N1_3  and  C2_4
REMARK    3  A    between atoms: C2_4  and  C3_5
REMARK    4  A    between atoms: C10_12  and  C16_20
REMARK    5  A    between atoms: C16_20  and  C17_21
REMARK                            x       y       z     vdW  Elec       q    Type
REMARK                         _______ _______ _______ _____ _____    ______ ____
ROOT
ATOM      1  O1  UNL     1     155.405 160.163 168.329  0.00  0.00    +0.000 OA
ATOM      2  C1  UNL     1     155.487 159.080 168.963  0.00  0.00    +0.000 C 
ATOM      3  N1  UNL     1     155.182 157.913 168.211  0.00  0.00    +0.000 N 
ATOM      4  H1  UNL     1     155.287 156.997 168.667  0.00  0.00    +0.000 HD
ENDROOT
BRANCH   2   5
ATOM      5  C9  UNL     1     155.880 159.121 170.362  0.00  0.00    +0.000 A 
ATOM      6  C10 UNL     1     157.126 158.731 170.801  0.00  0.00    +0.000 A 
ATOM      7  N2  UNL     1     157.112 158.929 172.137  0.00  0.00    +0.000 NA
ATOM      8  C11 UNL     1     155.931 159.419 172.533  0.00  0.00    +0.000 A 
ATOM      9  N3  UNL     1     155.152 159.546 171.448  0.00  0.00    +0.000 N 
ATOM     10  C12 UNL     1     153.891 160.042 171.557  0.00  0.00    +0.000 A 
ATOM     11  C13 UNL     1     153.391 160.414 172.765  0.00  0.00    +0.000 A 
ATOM     12  C14 UNL     1     154.144 160.302 173.899  0.00  0.00    +0.000 A 
ATOM     13  C15 UNL     1     155.420 159.799 173.760  0.00  0.00    +0.000 A 
BRANCH   6  14
ATOM     14  C16 UNL     1     158.302 158.211 170.050  0.00  0.00    +0.000 C 
ATOM     15  C17 UNL     1     159.004 159.198 169.201  0.00  0.00    +0.000 C 
ENDBRANCH   6  14
ENDBRANCH   2   5
BRANCH   3  16
ATOM     16  C2  UNL     1     154.776 158.012 166.800  0.00  0.00    +0.000 C 
BRANCH  16  17
ATOM     17  C3  UNL     1     155.864 157.789 165.859  0.00  0.00    +0.000 A 
ATOM     18  C4  UNL     1     156.393 158.913 165.208  0.00  0.00    +0.000 A 
ATOM     19  C5  UNL     1     157.414 158.817 164.291  0.00  0.00    +0.000 A 
ATOM     20  C6  UNL     1     157.907 157.559 164.030  0.00  0.00    +0.000 A 
ATOM     21  C7  UNL     1     157.398 156.447 164.661  0.00  0.00    +0.000 A 
ATOM     22  C8  UNL     1     156.390 156.555 165.564  0.00  0.00    +0.000 A 
ENDBRANCH  16  17
ENDBRANCH   3  16
TORSDOF 4
ENDMDL
MODEL 5
REMARK VINA RESULT:      -5.6      8.639     10.293
REMARK  Name = ./3D_structures\o53_MMV1663457_3D.pdb
REMARK  5 active torsions:
REMARK  status: ('A' for Active; 'I' for Inactive)
REMARK    1  A    between atoms: C1_2  and  C9_11
REMARK    2  A    between atoms: N1_3  and  C2_4
REMARK    3  A    between atoms: C2_4  and  C3_5
REMARK    4  A    between atoms: C10_12  and  C16_20
REMARK    5  A    between atoms: C16_20  and  C17_21
REMARK                            x       y       z     vdW  Elec       q    Type
REMARK                         _______ _______ _______ _____ _____    ______ ____
ROOT
ATOM      1  O1  UNL     1     156.648 157.921 171.912  0.00  0.00    +0.000 OA
ATOM      2  C1  UNL     1     156.267 158.956 171.308  0.00  0.00    +0.000 C 
ATOM      3  N1  UNL     1     157.143 159.420 170.290  0.00  0.00    +0.000 N 
ATOM      4  H1  UNL     1     156.854 160.231 169.727  0.00  0.00    +0.000 HD
ENDROOT
BRANCH   2   5
ATOM      5  C9  UNL     1     155.001 159.559 171.691  0.00  0.00    +0.000 A 
ATOM      6  C10 UNL     1     154.864 160.372 172.795  0.00  0.00    +0.000 A 
ATOM      7  N2  UNL     1     153.565 160.745 172.803  0.00  0.00    +0.000 NA
ATOM      8  C11 UNL     1     152.909 160.209 171.768  0.00  0.00    +0.000 A 
ATOM      9  N3  UNL     1     153.781 159.471 171.064  0.00  0.00    +0.000 N 
ATOM     10  C12 UNL     1     153.384 158.819 169.939  0.00  0.00    +0.000 A 
ATOM     11  C13 UNL     1     152.098 158.897 169.505  0.00  0.00    +0.000 A 
ATOM     12  C14 UNL     1     151.173 159.635 170.189  0.00  0.00    +0.000 A 
ATOM     13  C15 UNL     1     151.602 160.288 171.324  0.00  0.00    +0.000 A 
BRANCH   6  14
ATOM     14  C16 UNL     1     155.864 160.816 173.804  0.00  0.00    +0.000 C 
ATOM     15  C17 UNL     1     156.726 161.945 173.395  0.00  0.00    +0.000 C 
ENDBRANCH   6  14
ENDBRANCH   2   5
BRANCH   3  16
ATOM     16  C2  UNL     1     158.412 158.726 170.014  0.00  0.00    +0.000 C 
BRANCH  16  17
ATOM     17  C3  UNL     1     158.496 158.168 168.672  0.00  0.00    +0.000 A 
ATOM     18  C4  UNL     1     157.417 157.387 168.230  0.00  0.00    +0.000 A 
ATOM     19  C5  UNL     1     157.397 156.803 166.985  0.00  0.00    +0.000 A 
ATOM     20  C6  UNL     1     158.489 157.012 166.174  0.00  0.00    +0.000 A 
ATOM     21  C7  UNL     1     159.554 157.776 166.595  0.00  0.00    +0.000 A 
ATOM     22  C8  UNL     1     159.562 158.348 167.826  0.00  0.00    +0.000 A 
ENDBRANCH  16  17
ENDBRANCH   3  16
TORSDOF 4
ENDMDL
MODEL 6
REMARK VINA RESULT:      -5.5     11.428     12.988
REMARK  Name = ./3D_structures\o53_MMV1663457_3D.pdb
REMARK  5 active torsions:
REMARK  status: ('A' for Active; 'I' for Inactive)
REMARK    1  A    between atoms: C1_2  and  C9_11
REMARK    2  A    between atoms: N1_3  and  C2_4
REMARK    3  A    between atoms: C2_4  and  C3_5
REMARK    4  A    between atoms: C10_12  and  C16_20
REMARK    5  A    between atoms: C16_20  and  C17_21
REMARK                            x       y       z     vdW  Elec       q    Type
REMARK                         _______ _______ _______ _____ _____    ______ ____
ROOT
ATOM      1  O1  UNL     1     159.080 159.457 166.256  0.00  0.00    +0.000 OA
ATOM      2  C1  UNL     1     159.087 158.303 166.756  0.00  0.00    +0.000 C 
ATOM      3  N1  UNL     1     160.308 157.588 166.611  0.00  0.00    +0.000 N 
ATOM      4  H1  UNL     1     160.386 156.661 167.049  0.00  0.00    +0.000 HD
ENDROOT
BRANCH   2   5
ATOM      5  C9  UNL     1     157.886 157.823 167.419  0.00  0.00    +0.000 A 
ATOM      6  C10 UNL     1     156.896 157.128 166.761  0.00  0.00    +0.000 A 
ATOM      7  N2  UNL     1     155.972 156.844 167.705  0.00  0.00    +0.000 NA
ATOM      8  C11 UNL     1     156.346 157.325 168.897  0.00  0.00    +0.000 A 
ATOM      9  N3  UNL     1     157.531 157.935 168.742  0.00  0.00    +0.000 N 
ATOM     10  C12 UNL     1     158.159 158.505 169.805  0.00  0.00    +0.000 A 
ATOM     11  C13 UNL     1     157.599 158.473 171.043  0.00  0.00    +0.000 A 
ATOM     12  C14 UNL     1     156.393 157.865 171.251  0.00  0.00    +0.000 A 
ATOM     13  C15 UNL     1     155.780 157.293 170.158  0.00  0.00    +0.000 A 
BRANCH   6  14
ATOM     14  C16 UNL     1     156.783 156.713 165.336  0.00  0.00    +0.000 C 
ATOM     15  C17 UNL     1     157.466 155.451 164.982  0.00  0.00    +0.000 C 
ENDBRANCH   6  14
ENDBRANCH   2   5
BRANCH   3  16
ATOM     16  C2  UNL     1     161.448 158.183 165.896  0.00  0.00    +0.000 C 
BRANCH  16  17
ATOM     17  C3  UNL     1     162.584 158.490 166.753  0.00  0.00    +0.000 A 
ATOM     18  C4  UNL     1     162.880 159.843 166.971  0.00  0.00    +0.000 A 
ATOM     19  C5  UNL     1     163.936 160.247 167.754  0.00  0.00    +0.000 A 
ATOM     20  C6  UNL     1     164.707 159.260 168.326  0.00  0.00    +0.000 A 
ATOM     21  C7  UNL     1     164.428 157.927 168.121  0.00  0.00    +0.000 A 
ATOM     22  C8  UNL     1     163.382 157.543 167.346  0.00  0.00    +0.000 A 
ENDBRANCH  16  17
ENDBRANCH   3  16
TORSDOF 4
ENDMDL
MODEL 7
REMARK VINA RESULT:      -5.5      2.635      4.875
REMARK  Name = ./3D_structures\o53_MMV1663457_3D.pdb
REMARK  5 active torsions:
REMARK  status: ('A' for Active; 'I' for Inactive)
REMARK    1  A    between atoms: C1_2  and  C9_11
REMARK    2  A    between atoms: N1_3  and  C2_4
REMARK    3  A    between atoms: C2_4  and  C3_5
REMARK    4  A    between atoms: C10_12  and  C16_20
REMARK    5  A    between atoms: C16_20  and  C17_21
REMARK                            x       y       z     vdW  Elec       q    Type
REMARK                         _______ _______ _______ _____ _____    ______ ____
ROOT
ATOM      1  O1  UNL     1     147.412 162.752 169.099  0.00  0.00    +0.000 OA
ATOM      2  C1  UNL     1     147.877 162.868 167.936  0.00  0.00    +0.000 C 
ATOM      3  N1  UNL     1     148.417 161.677 167.379  0.00  0.00    +0.000 N 
ATOM      4  H1  UNL     1     148.761 161.702 166.410  0.00  0.00    +0.000 HD
ENDROOT
BRANCH   2   5
ATOM      5  C9  UNL     1     147.817 164.167 167.288  0.00  0.00    +0.000 A 
ATOM      6  C10 UNL     1     148.934 164.937 167.050  0.00  0.00    +0.000 A 
ATOM      7  N2  UNL     1     148.478 166.044 166.424  0.00  0.00    +0.000 NA
ATOM      8  C11 UNL     1     147.150 165.988 166.266  0.00  0.00    +0.000 A 
ATOM      9  N3  UNL     1     146.720 164.833 166.794  0.00  0.00    +0.000 N 
ATOM     10  C12 UNL     1     145.401 164.504 166.757  0.00  0.00    +0.000 A 
ATOM     11  C13 UNL     1     144.491 165.340 166.190  0.00  0.00    +0.000 A 
ATOM     12  C14 UNL     1     144.880 166.530 165.641  0.00  0.00    +0.000 A 
ATOM     13  C15 UNL     1     146.223 166.836 165.690  0.00  0.00    +0.000 A 
BRANCH   6  14
ATOM     14  C16 UNL     1     150.369 164.687 167.357  0.00  0.00    +0.000 C 
ATOM     15  C17 UNL     1     151.138 163.999 166.298  0.00  0.00    +0.000 C 
ENDBRANCH   6  14
ENDBRANCH   2   5
BRANCH   3  16
ATOM     16  C2  UNL     1     148.436 160.425 168.153  0.00  0.00    +0.000 C 
BRANCH  16  17
ATOM     17  C3  UNL     1     149.755 160.065 168.654  0.00  0.00    +0.000 A 
ATOM     18  C4  UNL     1     150.852 160.782 168.154  0.00  0.00    +0.000 A 
ATOM     19  C5  UNL     1     152.143 160.518 168.550  0.00  0.00    +0.000 A 
ATOM     20  C6  UNL     1     152.324 159.508 169.467  0.00  0.00    +0.000 A 
ATOM     21  C7  UNL     1     151.257 158.796 169.966  0.00  0.00    +0.000 A 
ATOM     22  C8  UNL     1     149.988 159.067 169.568  0.00  0.00    +0.000 A 
ENDBRANCH  16  17
ENDBRANCH   3  16
TORSDOF 4
ENDMDL
MODEL 8
REMARK VINA RESULT:      -5.4     11.798     12.754
REMARK  Name = ./3D_structures\o53_MMV1663457_3D.pdb
REMARK  5 active torsions:
REMARK  status: ('A' for Active; 'I' for Inactive)
REMARK    1  A    between atoms: C1_2  and  C9_11
REMARK    2  A    between atoms: N1_3  and  C2_4
REMARK    3  A    between atoms: C2_4  and  C3_5
REMARK    4  A    between atoms: C10_12  and  C16_20
REMARK    5  A    between atoms: C16_20  and  C17_21
REMARK                            x       y       z     vdW  Elec       q    Type
REMARK                         _______ _______ _______ _____ _____    ______ ____
ROOT
ATOM      1  O1  UNL     1     160.998 158.054 167.569  0.00  0.00    +0.000 OA
ATOM      2  C1  UNL     1     159.955 158.751 167.657  0.00  0.00    +0.000 C 
ATOM      3  N1  UNL     1     160.150 160.153 167.521  0.00  0.00    +0.000 N 
ATOM      4  H1  UNL     1     159.324 160.765 167.530  0.00  0.00    +0.000 HD
ENDROOT
BRANCH   2   5
ATOM      5  C9  UNL     1     158.685 158.080 167.877  0.00  0.00    +0.000 A 
ATOM      6  C10 UNL     1     158.055 157.334 166.905  0.00  0.00    +0.000 A 
ATOM      7  N2  UNL     1     156.930 156.865 167.490  0.00  0.00    +0.000 NA
ATOM      8  C11 UNL     1     156.844 157.280 168.758  0.00  0.00    +0.000 A 
ATOM      9  N3  UNL     1     157.922 158.034 169.020  0.00  0.00    +0.000 N 
ATOM     10  C12 UNL     1     158.103 158.579 170.253  0.00  0.00    +0.000 A 
ATOM     11  C13 UNL     1     157.195 158.375 171.243  0.00  0.00    +0.000 A 
ATOM     12  C14 UNL     1     156.079 157.616 171.026  0.00  0.00    +0.000 A 
ATOM     13  C15 UNL     1     155.923 157.074 169.768  0.00  0.00    +0.000 A 
BRANCH   6  14
ATOM     14  C16 UNL     1     158.450 157.034 165.502  0.00  0.00    +0.000 C 
ATOM     15  C17 UNL     1     157.503 156.195 164.737  0.00  0.00    +0.000 C 
ENDBRANCH   6  14
ENDBRANCH   2   5
BRANCH   3  16
ATOM     16  C2  UNL     1     161.498 160.709 167.321  0.00  0.00    +0.000 C 
BRANCH  16  17
ATOM     17  C3  UNL     1     161.922 161.615 168.378  0.00  0.00    +0.000 A 
ATOM     18  C4  UNL     1     160.921 162.186 169.178  0.00  0.00    +0.000 A 
ATOM     19  C5  UNL     1     161.208 163.063 170.198  0.00  0.00    +0.000 A 
ATOM     20  C6  UNL     1     162.533 163.368 170.410  0.00  0.00    +0.000 A 
ATOM     21  C7  UNL     1     163.526 162.816 169.633  0.00  0.00    +0.000 A 
ATOM     22  C8  UNL     1     163.230 161.951 168.630  0.00  0.00    +0.000 A 
ENDBRANCH  16  17
ENDBRANCH   3  16
TORSDOF 4
ENDMDL
MODEL 9
REMARK VINA RESULT:      -5.4      9.793     11.939
REMARK  Name = ./3D_structures\o53_MMV1663457_3D.pdb
REMARK  5 active torsions:
REMARK  status: ('A' for Active; 'I' for Inactive)
REMARK    1  A    between atoms: C1_2  and  C9_11
REMARK    2  A    between atoms: N1_3  and  C2_4
REMARK    3  A    between atoms: C2_4  and  C3_5
REMARK    4  A    between atoms: C10_12  and  C16_20
REMARK    5  A    between atoms: C16_20  and  C17_21
REMARK                            x       y       z     vdW  Elec       q    Type
REMARK                         _______ _______ _______ _____ _____    ______ ____
ROOT
ATOM      1  O1  UNL     1     158.944 158.007 169.497  0.00  0.00    +0.000 OA
ATOM      2  C1  UNL     1     158.364 158.269 168.412  0.00  0.00    +0.000 C 
ATOM      3  N1  UNL     1     159.195 158.826 167.401  0.00  0.00    +0.000 N 
ATOM      4  H1  UNL     1     158.783 159.009 166.476  0.00  0.00    +0.000 HD
ENDROOT
BRANCH   2   5
ATOM      5  C9  UNL     1     156.944 157.982 168.294  0.00  0.00    +0.000 A 
ATOM      6  C10 UNL     1     156.433 157.111 167.357  0.00  0.00    +0.000 A 
ATOM      7  N2  UNL     1     155.100 157.098 167.573  0.00  0.00    +0.000 NA
ATOM      8  C11 UNL     1     154.774 157.907 168.588  0.00  0.00    +0.000 A 
ATOM      9  N3  UNL     1     155.903 158.465 169.049  0.00  0.00    +0.000 N 
ATOM     10  C12 UNL     1     155.868 159.327 170.100  0.00  0.00    +0.000 A 
ATOM     11  C13 UNL     1     154.692 159.645 170.702  0.00  0.00    +0.000 A 
ATOM     12  C14 UNL     1     153.515 159.104 170.267  0.00  0.00    +0.000 A 
ATOM     13  C15 UNL     1     153.579 158.232 169.202  0.00  0.00    +0.000 A 
BRANCH   6  14
ATOM     14  C16 UNL     1     157.114 156.301 166.310  0.00  0.00    +0.000 C 
ATOM     15  C17 UNL     1     157.230 156.942 164.982  0.00  0.00    +0.000 C 
ENDBRANCH   6  14
ENDBRANCH   2   5
BRANCH   3  16
ATOM     16  C2  UNL     1     160.620 159.088 167.657  0.00  0.00    +0.000 C 
BRANCH  16  17
ATOM     17  C3  UNL     1     161.514 158.106 167.061  0.00  0.00    +0.000 A 
ATOM     18  C4  UNL     1     161.084 157.474 165.885  0.00  0.00    +0.000 A 
ATOM     19  C5  UNL     1     161.844 156.523 165.244  0.00  0.00    +0.000 A 
ATOM     20  C6  UNL     1     163.059 156.207 165.806  0.00  0.00    +0.000 A 
ATOM     21  C7  UNL     1     163.494 156.819 166.959  0.00  0.00    +0.000 A 
ATOM     22  C8  UNL     1     162.735 157.756 167.582  0.00  0.00    +0.000 A 
ENDBRANCH  16  17
ENDBRANCH   3  16
TORSDOF 4
ENDMDL
