MODEL 1
REMARK VINA RESULT:      -6.2      0.000      0.000
REMARK  Name = ./3D_structures\o54_MMV1341773_3D.pdb
REMARK  3 active torsions:
REMARK  status: ('A' for Active; 'I' for Inactive)
REMARK    1  A    between atoms: C1_2  and  C5_6
REMARK    2  A    between atoms: N1_8  and  C6_9
REMARK    3  A    between atoms: C6_9  and  C7_10
REMARK                            x       y       z     vdW  Elec       q    Type
REMARK                         _______ _______ _______ _____ _____    ______ ____
ROOT
ATOM      1  C7  UNL     1     156.443 157.386 166.417  0.00  0.00    +0.000 A 
ATOM      2  C8  UNL     1     155.119 157.227 166.744  0.00  0.00    +0.000 A 
ATOM      3  C9  UNL     1     154.648 157.413 168.050  0.00  0.00    +0.000 A 
ATOM      4  C10 UNL     1     155.530 157.765 169.035  0.00  0.00    +0.000 A 
ATOM      5  C11 UNL     1     156.843 157.917 168.690  0.00  0.00    +0.000 A 
ATOM      6  C12 UNL     1     157.627 158.272 169.771  0.00  0.00    +0.000 A 
ATOM      7  C13 UNL     1     156.736 158.355 170.921  0.00  0.00    +0.000 C 
ATOM      8  O2  UNL     1     157.088 158.651 172.087  0.00  0.00    +0.000 OA
ATOM      9  N2  UNL     1     155.441 158.034 170.434  0.00  0.00    +0.000 N 
ATOM     10  C14 UNL     1     158.972 158.455 169.546  0.00  0.00    +0.000 A 
ATOM     11  C15 UNL     1     159.485 158.284 168.276  0.00  0.00    +0.000 A 
ATOM     12  C16 UNL     1     158.676 157.928 167.209  0.00  0.00    +0.000 A 
ATOM     13  C17 UNL     1     157.323 157.743 167.434  0.00  0.00    +0.000 A 
ATOM     14  H9  UNL     1     154.569 158.000 170.993  0.00  0.00    +0.000 HD
ENDROOT
BRANCH   1  15
ATOM     15  C6  UNL     1     157.028 157.198 165.084  0.00  0.00    +0.000 C 
BRANCH  15  18
ATOM     16  C5  UNL     1     158.214 155.077 164.507  0.00  0.00    +0.000 C 
ATOM     17  O1  UNL     1     159.305 155.582 164.852  0.00  0.00    +0.000 OA
ATOM     18  N1  UNL     1     157.024 155.840 164.603  0.00  0.00    +0.000 N 
ATOM     19  H4  UNL     1     156.136 155.372 164.309  0.00  0.00    +0.000 HD
BRANCH  16  21
ATOM     20  S1  UNL     1     157.472 153.184 162.459  0.00  0.00    +0.000 S 
ATOM     21  C1  UNL     1     158.180 153.699 164.007  0.00  0.00    +0.000 A 
ATOM     22  C2  UNL     1     158.638 152.548 164.544  0.00  0.00    +0.000 A 
ATOM     23  C3  UNL     1     158.473 151.402 163.860  0.00  0.00    +0.000 A 
ATOM     24  C4  UNL     1     157.856 151.440 162.663  0.00  0.00    +0.000 A 
ENDBRANCH  16  21
ENDBRANCH  15  18
ENDBRANCH   1  15
TORSDOF 3
ENDMDL
MODEL 2
REMARK VINA RESULT:      -6.0      0.975      2.370
REMARK  Name = ./3D_structures\o54_MMV1341773_3D.pdb
REMARK  3 active torsions:
REMARK  status: ('A' for Active; 'I' for Inactive)
REMARK    1  A    between atoms: C1_2  and  C5_6
REMARK    2  A    between atoms: N1_8  and  C6_9
REMARK    3  A    between atoms: C6_9  and  C7_10
REMARK                            x       y       z     vdW  Elec       q    Type
REMARK                         _______ _______ _______ _____ _____    ______ ____
ROOT
ATOM      1  C7  UNL     1     157.016 157.491 166.938  0.00  0.00    +0.000 A 
ATOM      2  C8  UNL     1     158.343 157.699 167.225  0.00  0.00    +0.000 A 
ATOM      3  C9  UNL     1     158.777 158.074 168.502  0.00  0.00    +0.000 A 
ATOM      4  C10 UNL     1     157.857 158.241 169.500  0.00  0.00    +0.000 A 
ATOM      5  C11 UNL     1     156.541 158.031 169.196  0.00  0.00    +0.000 A 
ATOM      6  C12 UNL     1     155.717 158.232 170.285  0.00  0.00    +0.000 A 
ATOM      7  C13 UNL     1     156.581 158.607 171.397  0.00  0.00    +0.000 C 
ATOM      8  O2  UNL     1     156.190 158.871 172.559  0.00  0.00    +0.000 OA
ATOM      9  N2  UNL     1     157.903 158.606 170.879  0.00  0.00    +0.000 N 
ATOM     10  C14 UNL     1     154.366 158.048 170.100  0.00  0.00    +0.000 A 
ATOM     11  C15 UNL     1     153.886 157.678 168.860  0.00  0.00    +0.000 A 
ATOM     12  C16 UNL     1     154.737 157.483 167.783  0.00  0.00    +0.000 A 
ATOM     13  C17 UNL     1     156.096 157.667 167.967  0.00  0.00    +0.000 A 
ATOM     14  H9  UNL     1     158.767 158.829 171.408  0.00  0.00    +0.000 HD
ENDROOT
BRANCH   1  15
ATOM     15  C6  UNL     1     156.467 157.113 165.631  0.00  0.00    +0.000 C 
BRANCH  15  18
ATOM     16  C5  UNL     1     157.816 155.466 164.325  0.00  0.00    +0.000 C 
ATOM     17  O1  UNL     1     158.534 156.389 163.884  0.00  0.00    +0.000 OA
ATOM     18  N1  UNL     1     156.755 155.764 165.217  0.00  0.00    +0.000 N 
ATOM     19  H4  UNL     1     156.187 154.957 165.563  0.00  0.00    +0.000 HD
BRANCH  16  21
ATOM     20  S1  UNL     1     157.652 153.377 162.341  0.00  0.00    +0.000 S 
ATOM     21  C1  UNL     1     158.081 154.083 163.915  0.00  0.00    +0.000 A 
ATOM     22  C2  UNL     1     158.672 153.060 164.570  0.00  0.00    +0.000 A 
ATOM     23  C3  UNL     1     158.789 151.874 163.949  0.00  0.00    +0.000 A 
ATOM     24  C4  UNL     1     158.312 151.743 162.696  0.00  0.00    +0.000 A 
ENDBRANCH  16  21
ENDBRANCH  15  18
ENDBRANCH   1  15
TORSDOF 3
ENDMDL
MODEL 3
REMARK VINA RESULT:      -6.0      4.405      6.604
REMARK  Name = ./3D_structures\o54_MMV1341773_3D.pdb
REMARK  3 active torsions:
REMARK  status: ('A' for Active; 'I' for Inactive)
REMARK    1  A    between atoms: C1_2  and  C5_6
REMARK    2  A    between atoms: N1_8  and  C6_9
REMARK    3  A    between atoms: C6_9  and  C7_10
REMARK                            x       y       z     vdW  Elec       q    Type
REMARK                         _______ _______ _______ _____ _____    ______ ____
ROOT
ATOM      1  C7  UNL     1     159.976 158.101 167.221  0.00  0.00    +0.000 A 
ATOM      2  C8  UNL     1     159.930 158.630 168.487  0.00  0.00    +0.000 A 
ATOM      3  C9  UNL     1     158.754 158.637 169.248  0.00  0.00    +0.000 A 
ATOM      4  C10 UNL     1     157.612 158.100 168.719  0.00  0.00    +0.000 A 
ATOM      5  C11 UNL     1     157.677 157.580 167.457  0.00  0.00    +0.000 A 
ATOM      6  C12 UNL     1     156.463 157.072 167.040  0.00  0.00    +0.000 A 
ATOM      7  C13 UNL     1     155.525 157.286 168.135  0.00  0.00    +0.000 C 
ATOM      8  O2  UNL     1     154.315 156.955 168.126  0.00  0.00    +0.000 OA
ATOM      9  N2  UNL     1     156.266 157.927 169.163  0.00  0.00    +0.000 N 
ATOM     10  C14 UNL     1     156.405 156.518 165.782  0.00  0.00    +0.000 A 
ATOM     11  C15 UNL     1     157.536 156.488 164.993  0.00  0.00    +0.000 A 
ATOM     12  C16 UNL     1     158.743 157.004 165.436  0.00  0.00    +0.000 A 
ATOM     13  C17 UNL     1     158.803 157.562 166.702  0.00  0.00    +0.000 A 
ATOM     14  H9  UNL     1     155.901 158.222 170.087  0.00  0.00    +0.000 HD
ENDROOT
BRANCH   1  15
ATOM     15  C6  UNL     1     161.154 158.064 166.347  0.00  0.00    +0.000 C 
BRANCH  15  18
ATOM     16  C5  UNL     1     163.374 158.043 167.491  0.00  0.00    +0.000 C 
ATOM     17  O1  UNL     1     163.313 156.799 167.606  0.00  0.00    +0.000 OA
ATOM     18  N1  UNL     1     162.315 158.744 166.860  0.00  0.00    +0.000 N 
ATOM     19  H4  UNL     1     162.414 159.782 166.783  0.00  0.00    +0.000 HD
BRANCH  16  21
ATOM     20  S1  UNL     1     165.129 160.332 167.419  0.00  0.00    +0.000 S 
ATOM     21  C1  UNL     1     164.541 158.763 168.011  0.00  0.00    +0.000 A 
ATOM     22  C2  UNL     1     165.410 158.449 168.996  0.00  0.00    +0.000 A 
ATOM     23  C3  UNL     1     166.410 159.304 169.274  0.00  0.00    +0.000 A 
ATOM     24  C4  UNL     1     166.513 160.442 168.560  0.00  0.00    +0.000 A 
ENDBRANCH  16  21
ENDBRANCH  15  18
ENDBRANCH   1  15
TORSDOF 3
ENDMDL
MODEL 4
REMARK VINA RESULT:      -6.0     10.937     13.079
REMARK  Name = ./3D_structures\o54_MMV1341773_3D.pdb
REMARK  3 active torsions:
REMARK  status: ('A' for Active; 'I' for Inactive)
REMARK    1  A    between atoms: C1_2  and  C5_6
REMARK    2  A    between atoms: N1_8  and  C6_9
REMARK    3  A    between atoms: C6_9  and  C7_10
REMARK                            x       y       z     vdW  Elec       q    Type
REMARK                         _______ _______ _______ _____ _____    ______ ____
ROOT
ATOM      1  C7  UNL     1     147.988 165.899 166.945  0.00  0.00    +0.000 A 
ATOM      2  C8  UNL     1     147.380 166.510 165.876  0.00  0.00    +0.000 A 
ATOM      3  C9  UNL     1     146.055 166.233 165.517  0.00  0.00    +0.000 A 
ATOM      4  C10 UNL     1     145.339 165.325 166.249  0.00  0.00    +0.000 A 
ATOM      5  C11 UNL     1     145.962 164.726 167.307  0.00  0.00    +0.000 A 
ATOM      6  C12 UNL     1     145.135 163.835 167.961  0.00  0.00    +0.000 A 
ATOM      7  C13 UNL     1     143.858 163.859 167.258  0.00  0.00    +0.000 C 
ATOM      8  O2  UNL     1     142.853 163.175 167.562  0.00  0.00    +0.000 OA
ATOM      9  N2  UNL     1     144.016 164.793 166.199  0.00  0.00    +0.000 N 
ATOM     10  C14 UNL     1     145.653 163.169 169.047  0.00  0.00    +0.000 A 
ATOM     11  C15 UNL     1     146.953 163.407 169.443  0.00  0.00    +0.000 A 
ATOM     12  C16 UNL     1     147.762 164.308 168.769  0.00  0.00    +0.000 A 
ATOM     13  C17 UNL     1     147.243 164.979 167.675  0.00  0.00    +0.000 A 
ATOM     14  H9  UNL     1     143.295 165.053 165.502  0.00  0.00    +0.000 HD
ENDROOT
BRANCH   1  15
ATOM     15  C6  UNL     1     149.372 166.113 167.385  0.00  0.00    +0.000 C 
BRANCH  15  18
ATOM     16  C5  UNL     1     150.999 164.648 166.186  0.00  0.00    +0.000 C 
ATOM     17  O1  UNL     1     150.678 163.681 166.911  0.00  0.00    +0.000 OA
ATOM     18  N1  UNL     1     150.373 165.905 166.371  0.00  0.00    +0.000 N 
ATOM     19  H4  UNL     1     150.671 166.681 165.737  0.00  0.00    +0.000 HD
BRANCH  16  21
ATOM     20  S1  UNL     1     153.476 165.471 164.955  0.00  0.00    +0.000 S 
ATOM     21  C1  UNL     1     152.022 164.467 165.150  0.00  0.00    +0.000 A 
ATOM     22  C2  UNL     1     152.122 163.566 164.149  0.00  0.00    +0.000 A 
ATOM     23  C3  UNL     1     153.183 163.626 163.326  0.00  0.00    +0.000 A 
ATOM     24  C4  UNL     1     154.109 164.584 163.525  0.00  0.00    +0.000 A 
ENDBRANCH  16  21
ENDBRANCH  15  18
ENDBRANCH   1  15
TORSDOF 3
ENDMDL
MODEL 5
REMARK VINA RESULT:      -5.9      9.229     11.666
REMARK  Name = ./3D_structures\o54_MMV1341773_3D.pdb
REMARK  3 active torsions:
REMARK  status: ('A' for Active; 'I' for Inactive)
REMARK    1  A    between atoms: C1_2  and  C5_6
REMARK    2  A    between atoms: N1_8  and  C6_9
REMARK    3  A    between atoms: C6_9  and  C7_10
REMARK                            x       y       z     vdW  Elec       q    Type
REMARK                         _______ _______ _______ _____ _____    ______ ____
ROOT
ATOM      1  C7  UNL     1     148.592 162.782 167.587  0.00  0.00    +0.000 A 
ATOM      2  C8  UNL     1     149.762 163.379 167.188  0.00  0.00    +0.000 A 
ATOM      3  C9  UNL     1     149.784 164.644 166.587  0.00  0.00    +0.000 A 
ATOM      4  C10 UNL     1     148.606 165.311 166.389  0.00  0.00    +0.000 A 
ATOM      5  C11 UNL     1     147.452 164.700 166.791  0.00  0.00    +0.000 A 
ATOM      6  C12 UNL     1     146.337 165.473 166.536  0.00  0.00    +0.000 A 
ATOM      7  C13 UNL     1     146.816 166.699 165.909  0.00  0.00    +0.000 C 
ATOM      8  O2  UNL     1     146.090 167.648 165.530  0.00  0.00    +0.000 OA
ATOM      9  N2  UNL     1     148.228 166.569 165.830  0.00  0.00    +0.000 N 
ATOM     10  C14 UNL     1     145.113 164.961 166.899  0.00  0.00    +0.000 A 
ATOM     11  C15 UNL     1     145.037 163.719 167.495  0.00  0.00    +0.000 A 
ATOM     12  C16 UNL     1     146.173 162.963 167.740  0.00  0.00    +0.000 A 
ATOM     13  C17 UNL     1     147.405 163.476 167.375  0.00  0.00    +0.000 A 
ATOM     14  H9  UNL     1     148.885 167.267 165.435  0.00  0.00    +0.000 HD
ENDROOT
BRANCH   1  15
ATOM     15  C6  UNL     1     148.471 161.458 168.208  0.00  0.00    +0.000 C 
BRANCH  15  18
ATOM     16  C5  UNL     1     150.563 160.502 169.179  0.00  0.00    +0.000 C 
ATOM     17  O1  UNL     1     150.359 161.117 170.249  0.00  0.00    +0.000 OA
ATOM     18  N1  UNL     1     149.644 160.628 168.108  0.00  0.00    +0.000 N 
ATOM     19  H4  UNL     1     149.854 160.090 167.237  0.00  0.00    +0.000 HD
BRANCH  16  21
ATOM     20  S1  UNL     1     153.140 159.990 167.986  0.00  0.00    +0.000 S 
ATOM     21  C1  UNL     1     151.753 159.655 169.047  0.00  0.00    +0.000 A 
ATOM     22  C2  UNL     1     152.085 158.490 169.645  0.00  0.00    +0.000 A 
ATOM     23  C3  UNL     1     153.260 157.915 169.336  0.00  0.00    +0.000 A 
ATOM     24  C4  UNL     1     154.066 158.517 168.440  0.00  0.00    +0.000 A 
ENDBRANCH  16  21
ENDBRANCH  15  18
ENDBRANCH   1  15
TORSDOF 3
ENDMDL
MODEL 6
REMARK VINA RESULT:      -5.9     11.165     13.388
REMARK  Name = ./3D_structures\o54_MMV1341773_3D.pdb
REMARK  3 active torsions:
REMARK  status: ('A' for Active; 'I' for Inactive)
REMARK    1  A    between atoms: C1_2  and  C5_6
REMARK    2  A    between atoms: N1_8  and  C6_9
REMARK    3  A    between atoms: C6_9  and  C7_10
REMARK                            x       y       z     vdW  Elec       q    Type
REMARK                         _______ _______ _______ _____ _____    ______ ____
ROOT
ATOM      1  C7  UNL     1     147.821 165.145 167.121  0.00  0.00    +0.000 A 
ATOM      2  C8  UNL     1     148.117 164.164 168.035  0.00  0.00    +0.000 A 
ATOM      3  C9  UNL     1     147.140 163.290 168.530  0.00  0.00    +0.000 A 
ATOM      4  C10 UNL     1     145.849 163.412 168.093  0.00  0.00    +0.000 A 
ATOM      5  C11 UNL     1     145.574 164.395 167.185  0.00  0.00    +0.000 A 
ATOM      6  C12 UNL     1     144.241 164.414 166.826  0.00  0.00    +0.000 A 
ATOM      7  C13 UNL     1     143.594 163.343 167.574  0.00  0.00    +0.000 C 
ATOM      8  O2  UNL     1     142.377 163.051 167.511  0.00  0.00    +0.000 OA
ATOM      9  N2  UNL     1     144.618 162.740 168.352  0.00  0.00    +0.000 N 
ATOM     10  C14 UNL     1     143.843 165.363 165.913  0.00  0.00    +0.000 A 
ATOM     11  C15 UNL     1     144.767 166.247 165.395  0.00  0.00    +0.000 A 
ATOM     12  C16 UNL     1     146.100 166.206 165.772  0.00  0.00    +0.000 A 
ATOM     13  C17 UNL     1     146.502 165.252 166.691  0.00  0.00    +0.000 A 
ATOM     14  H9  UNL     1     144.500 161.942 169.003  0.00  0.00    +0.000 HD
ENDROOT
BRANCH   1  15
ATOM     15  C6  UNL     1     148.771 166.112 166.560  0.00  0.00    +0.000 C 
BRANCH  15  18
ATOM     16  C5  UNL     1     151.127 165.536 165.967  0.00  0.00    +0.000 C 
ATOM     17  O1  UNL     1     151.526 166.004 167.056  0.00  0.00    +0.000 OA
ATOM     18  N1  UNL     1     149.745 165.557 165.656  0.00  0.00    +0.000 N 
ATOM     19  H4  UNL     1     149.460 165.149 164.737  0.00  0.00    +0.000 HD
BRANCH  16  21
ATOM     20  S1  UNL     1     153.719 165.622 164.702  0.00  0.00    +0.000 S 
ATOM     21  C1  UNL     1     152.097 164.970 165.024  0.00  0.00    +0.000 A 
ATOM     22  C2  UNL     1     152.022 163.892 164.213  0.00  0.00    +0.000 A 
ATOM     23  C3  UNL     1     153.076 163.591 163.436  0.00  0.00    +0.000 A 
ATOM     24  C4  UNL     1     154.170 164.375 163.488  0.00  0.00    +0.000 A 
ENDBRANCH  16  21
ENDBRANCH  15  18
ENDBRANCH   1  15
TORSDOF 3
ENDMDL
MODEL 7
REMARK VINA RESULT:      -5.8      3.779      6.900
REMARK  Name = ./3D_structures\o54_MMV1341773_3D.pdb
REMARK  3 active torsions:
REMARK  status: ('A' for Active; 'I' for Inactive)
REMARK    1  A    between atoms: C1_2  and  C5_6
REMARK    2  A    between atoms: N1_8  and  C6_9
REMARK    3  A    between atoms: C6_9  and  C7_10
REMARK                            x       y       z     vdW  Elec       q    Type
REMARK                         _______ _______ _______ _____ _____    ______ ____
ROOT
ATOM      1  C7  UNL     1     157.307 157.651 169.137  0.00  0.00    +0.000 A 
ATOM      2  C8  UNL     1     157.858 158.629 169.928  0.00  0.00    +0.000 A 
ATOM      3  C9  UNL     1     158.911 159.439 169.483  0.00  0.00    +0.000 A 
ATOM      4  C10 UNL     1     159.410 159.255 168.223  0.00  0.00    +0.000 A 
ATOM      5  C11 UNL     1     158.850 158.276 167.451  0.00  0.00    +0.000 A 
ATOM      6  C12 UNL     1     159.441 158.192 166.207  0.00  0.00    +0.000 A 
ATOM      7  C13 UNL     1     160.482 159.212 166.171  0.00  0.00    +0.000 C 
ATOM      8  O2  UNL     1     161.239 159.438 165.198  0.00  0.00    +0.000 OA
ATOM      9  N2  UNL     1     160.440 159.854 167.437  0.00  0.00    +0.000 N 
ATOM     10  C14 UNL     1     158.959 157.241 165.338  0.00  0.00    +0.000 A 
ATOM     11  C15 UNL     1     157.922 156.417 165.728  0.00  0.00    +0.000 A 
ATOM     12  C16 UNL     1     157.346 156.524 166.984  0.00  0.00    +0.000 A 
ATOM     13  C17 UNL     1     157.830 157.480 167.859  0.00  0.00    +0.000 A 
ATOM     14  H9  UNL     1     161.050 160.632 167.748  0.00  0.00    +0.000 HD
ENDROOT
BRANCH   1  15
ATOM     15  C6  UNL     1     156.216 156.748 169.521  0.00  0.00    +0.000 C 
BRANCH  15  18
ATOM     16  C5  UNL     1     153.947 157.644 168.990  0.00  0.00    +0.000 C 
ATOM     17  O1  UNL     1     154.072 157.282 167.800  0.00  0.00    +0.000 OA
ATOM     18  N1  UNL     1     154.994 157.400 169.914  0.00  0.00    +0.000 N 
ATOM     19  H4  UNL     1     154.840 157.716 170.899  0.00  0.00    +0.000 HD
BRANCH  16  21
ATOM     20  S1  UNL     1     152.362 160.046 169.202  0.00  0.00    +0.000 S 
ATOM     21  C1  UNL     1     152.716 158.317 169.417  0.00  0.00    +0.000 A 
ATOM     22  C2  UNL     1     151.614 157.843 170.038  0.00  0.00    +0.000 A 
ATOM     23  C3  UNL     1     150.611 158.693 170.319  0.00  0.00    +0.000 A 
ATOM     24  C4  UNL     1     150.739 159.989 169.974  0.00  0.00    +0.000 A 
ENDBRANCH  16  21
ENDBRANCH  15  18
ENDBRANCH   1  15
TORSDOF 3
ENDMDL
MODEL 8
REMARK VINA RESULT:      -5.7      6.088      9.326
REMARK  Name = ./3D_structures\o54_MMV1341773_3D.pdb
REMARK  3 active torsions:
REMARK  status: ('A' for Active; 'I' for Inactive)
REMARK    1  A    between atoms: C1_2  and  C5_6
REMARK    2  A    between atoms: N1_8  and  C6_9
REMARK    3  A    between atoms: C6_9  and  C7_10
REMARK                            x       y       z     vdW  Elec       q    Type
REMARK                         _______ _______ _______ _____ _____    ______ ____
ROOT
ATOM      1  C7  UNL     1     152.577 159.871 170.427  0.00  0.00    +0.000 A 
ATOM      2  C8  UNL     1     152.765 159.307 169.189  0.00  0.00    +0.000 A 
ATOM      3  C9  UNL     1     153.980 158.716 168.818  0.00  0.00    +0.000 A 
ATOM      4  C10 UNL     1     155.015 158.698 169.712  0.00  0.00    +0.000 A 
ATOM      5  C11 UNL     1     154.810 159.266 170.938  0.00  0.00    +0.000 A 
ATOM      6  C12 UNL     1     155.928 159.184 171.744  0.00  0.00    +0.000 A 
ATOM      7  C13 UNL     1     156.952 158.499 170.965  0.00  0.00    +0.000 C 
ATOM      8  O2  UNL     1     158.111 158.239 171.365  0.00  0.00    +0.000 OA
ATOM      9  N2  UNL     1     156.357 158.211 169.708  0.00  0.00    +0.000 N 
ATOM     10  C14 UNL     1     155.841 159.722 173.006  0.00  0.00    +0.000 A 
ATOM     11  C15 UNL     1     154.666 160.316 173.420  0.00  0.00    +0.000 A 
ATOM     12  C16 UNL     1     153.558 160.385 172.591  0.00  0.00    +0.000 A 
ATOM     13  C17 UNL     1     153.643 159.843 171.320  0.00  0.00    +0.000 A 
ATOM     14  H9  UNL     1     156.812 157.725 168.913  0.00  0.00    +0.000 HD
ENDROOT
BRANCH   1  15
ATOM     15  C6  UNL     1     151.350 160.524 170.897  0.00  0.00    +0.000 C 
BRANCH  15  18
ATOM     16  C5  UNL     1     149.929 161.780 169.271  0.00  0.00    +0.000 C 
ATOM     17  O1  UNL     1     149.259 160.748 169.046  0.00  0.00    +0.000 OA
ATOM     18  N1  UNL     1     150.999 161.735 170.200  0.00  0.00    +0.000 N 
ATOM     19  H4  UNL     1     151.525 162.624 170.360  0.00  0.00    +0.000 HD
BRANCH  16  21
ATOM     20  S1  UNL     1     150.274 164.626 168.948  0.00  0.00    +0.000 S 
ATOM     21  C1  UNL     1     149.599 163.025 168.571  0.00  0.00    +0.000 A 
ATOM     22  C2  UNL     1     148.761 163.269 167.540  0.00  0.00    +0.000 A 
ATOM     23  C3  UNL     1     148.645 164.528 167.083  0.00  0.00    +0.000 A 
ATOM     24  C4  UNL     1     149.364 165.504 167.669  0.00  0.00    +0.000 A 
ENDBRANCH  16  21
ENDBRANCH  15  18
ENDBRANCH   1  15
TORSDOF 3
ENDMDL
MODEL 9
REMARK VINA RESULT:      -5.7      3.758      7.810
REMARK  Name = ./3D_structures\o54_MMV1341773_3D.pdb
REMARK  3 active torsions:
REMARK  status: ('A' for Active; 'I' for Inactive)
REMARK    1  A    between atoms: C1_2  and  C5_6
REMARK    2  A    between atoms: N1_8  and  C6_9
REMARK    3  A    between atoms: C6_9  and  C7_10
REMARK                            x       y       z     vdW  Elec       q    Type
REMARK                         _______ _______ _______ _____ _____    ______ ____
ROOT
ATOM      1  C7  UNL     1     157.458 157.611 168.559  0.00  0.00    +0.000 A 
ATOM      2  C8  UNL     1     158.456 158.295 169.208  0.00  0.00    +0.000 A 
ATOM      3  C9  UNL     1     159.668 158.613 168.582  0.00  0.00    +0.000 A 
ATOM      4  C10 UNL     1     159.871 158.233 167.284  0.00  0.00    +0.000 A 
ATOM      5  C11 UNL     1     158.867 157.553 166.655  0.00  0.00    +0.000 A 
ATOM      6  C12 UNL     1     159.194 157.228 165.353  0.00  0.00    +0.000 A 
ATOM      7  C13 UNL     1     160.536 157.747 165.120  0.00  0.00    +0.000 C 
ATOM      8  O2  UNL     1     161.175 157.643 164.046  0.00  0.00    +0.000 OA
ATOM      9  N2  UNL     1     160.930 158.365 166.337  0.00  0.00    +0.000 N 
ATOM     10  C14 UNL     1     158.258 156.540 164.616  0.00  0.00    +0.000 A 
ATOM     11  C15 UNL     1     157.048 156.203 165.187  0.00  0.00    +0.000 A 
ATOM     12  C16 UNL     1     156.744 156.542 166.496  0.00  0.00    +0.000 A 
ATOM     13  C17 UNL     1     157.685 157.234 167.239  0.00  0.00    +0.000 A 
ATOM     14  H9  UNL     1     161.835 158.837 166.517  0.00  0.00    +0.000 HD
ENDROOT
BRANCH   1  15
ATOM     15  C6  UNL     1     156.166 157.222 169.135  0.00  0.00    +0.000 C 
BRANCH  15  18
ATOM     16  C5  UNL     1     155.156 159.097 170.438  0.00  0.00    +0.000 C 
ATOM     17  O1  UNL     1     154.813 159.662 169.376  0.00  0.00    +0.000 OA
ATOM     18  N1  UNL     1     155.841 157.858 170.386  0.00  0.00    +0.000 N 
ATOM     19  H4  UNL     1     156.101 157.422 171.300  0.00  0.00    +0.000 HD
BRANCH  16  21
ATOM     20  S1  UNL     1     153.348 160.608 172.104  0.00  0.00    +0.000 S 
ATOM     21  C1  UNL     1     154.844 159.725 171.726  0.00  0.00    +0.000 A 
ATOM     22  C2  UNL     1     155.553 159.796 172.874  0.00  0.00    +0.000 A 
ATOM     23  C3  UNL     1     155.021 160.445 173.924  0.00  0.00    +0.000 A 
ATOM     24  C4  UNL     1     153.803 161.005 173.798  0.00  0.00    +0.000 A 
ENDBRANCH  16  21
ENDBRANCH  15  18
ENDBRANCH   1  15
TORSDOF 3
ENDMDL
