MODEL 1
REMARK VINA RESULT:      -6.5      0.000      0.000
REMARK  Name = ./3D_structures\o55_MMV1633970_3D.pdb
REMARK  10 active torsions:
REMARK  status: ('A' for Active; 'I' for Inactive)
REMARK    1  A    between atoms: C1_2  and  O2_3
REMARK    2  A    between atoms: C1_2  and  C2_4
REMARK    3  A    between atoms: C5_7  and  C6_8
REMARK    4  A    between atoms: C9_11  and  O3_12
REMARK    5  A    between atoms: O3_12  and  C10_13
REMARK    6  A    between atoms: C11_15  and  C15_22
REMARK    7  A    between atoms: C12_16  and  O5_17
REMARK    8  A    between atoms: C13_18  and  O7_21
REMARK    9  A    between atoms: C14_19  and  O6_20
REMARK   10  A    between atoms: C15_22  and  O8_23
REMARK                            x       y       z     vdW  Elec       q    Type
REMARK                         _______ _______ _______ _____ _____    ______ ____
ROOT
ATOM      1  C6  UNL     1     152.120 160.267 168.165  0.00  0.00    +0.000 A 
ATOM      2  C7  UNL     1     151.880 161.452 167.504  0.00  0.00    +0.000 A 
ATOM      3  C8  UNL     1     150.846 162.260 167.968  0.00  0.00    +0.000 A 
ATOM      4  C9  UNL     1     150.069 161.928 169.039  0.00  0.00    +0.000 A 
ATOM      5  C16 UNL     1     150.359 160.714 169.670  0.00  0.00    +0.000 A 
ATOM      6  C17 UNL     1     151.365 159.885 169.253  0.00  0.00    +0.000 A 
ENDROOT
BRANCH   1  10
ATOM      7  C2  UNL     1     155.261 157.726 166.866  0.00  0.00    +0.000 A 
ATOM      8  C3  UNL     1     154.696 157.595 168.127  0.00  0.00    +0.000 A 
ATOM      9  C4  UNL     1     153.679 158.432 168.520  0.00  0.00    +0.000 A 
ATOM     10  C5  UNL     1     153.196 159.406 167.701  0.00  0.00    +0.000 A 
ATOM     11  C18 UNL     1     153.771 159.525 166.444  0.00  0.00    +0.000 A 
ATOM     12  C19 UNL     1     154.797 158.694 166.020  0.00  0.00    +0.000 A 
BRANCH   7  14
ATOM     13  O1  UNL     1     157.444 156.800 167.062  0.00  0.00    +0.000 OA
ATOM     14  C1  UNL     1     156.332 156.834 166.466  0.00  0.00    +0.000 C 
BRANCH  14  15
ATOM     15  O2  UNL     1     156.129 155.972 165.374  0.00  0.00    +0.000 OA
ATOM     16  H1  UNL     1     155.878 154.997 165.547  0.00  0.00    +0.000 HD
ENDBRANCH  14  15
ENDBRANCH   7  14
ENDBRANCH   1  10
BRANCH   4  17
ATOM     17  O3  UNL     1     149.041 162.692 169.529  0.00  0.00    +0.000 OA
BRANCH  17  18
ATOM     18  C10 UNL     1     147.952 163.200 168.840  0.00  0.00    +0.000 C 
ATOM     19  O4  UNL     1     147.464 162.330 167.872  0.00  0.00    +0.000 OA
ATOM     20  C11 UNL     1     146.137 162.047 168.074  0.00  0.00    +0.000 C 
ATOM     21  C12 UNL     1     145.283 163.297 167.980  0.00  0.00    +0.000 C 
ATOM     22  C13 UNL     1     145.783 164.303 168.990  0.00  0.00    +0.000 C 
ATOM     23  C14 UNL     1     146.878 163.663 169.810  0.00  0.00    +0.000 C 
BRANCH  21  24
ATOM     24  O5  UNL     1     143.982 162.960 168.273  0.00  0.00    +0.000 OA
ATOM     25  H9  UNL     1     143.960 162.045 168.690  0.00  0.00    +0.000 HD
ENDBRANCH  21  24
BRANCH  23  26
ATOM     26  O6  UNL     1     147.483 164.683 170.585  0.00  0.00    +0.000 OA
ATOM     27  H12 UNL     1     147.374 165.530 170.043  0.00  0.00    +0.000 HD
ENDBRANCH  23  26
BRANCH  22  28
ATOM     28  O7  UNL     1     146.373 165.396 168.317  0.00  0.00    +0.000 OA
ATOM     29  H13 UNL     1     147.231 165.115 167.908  0.00  0.00    +0.000 HD
ENDBRANCH  22  28
BRANCH  20  30
ATOM     30  C15 UNL     1     145.636 160.990 167.094  0.00  0.00    +0.000 C 
BRANCH  30  31
ATOM     31  O8  UNL     1     145.381 161.660 165.891  0.00  0.00    +0.000 OA
ATOM     32  H16 UNL     1     145.734 161.113 165.161  0.00  0.00    +0.000 HD
ENDBRANCH  30  31
ENDBRANCH  20  30
ENDBRANCH  17  18
ENDBRANCH   4  17
TORSDOF 10
ENDMDL
MODEL 2
REMARK VINA RESULT:      -6.4      1.703      2.242
REMARK  Name = ./3D_structures\o55_MMV1633970_3D.pdb
REMARK  10 active torsions:
REMARK  status: ('A' for Active; 'I' for Inactive)
REMARK    1  A    between atoms: C1_2  and  O2_3
REMARK    2  A    between atoms: C1_2  and  C2_4
REMARK    3  A    between atoms: C5_7  and  C6_8
REMARK    4  A    between atoms: C9_11  and  O3_12
REMARK    5  A    between atoms: O3_12  and  C10_13
REMARK    6  A    between atoms: C11_15  and  C15_22
REMARK    7  A    between atoms: C12_16  and  O5_17
REMARK    8  A    between atoms: C13_18  and  O7_21
REMARK    9  A    between atoms: C14_19  and  O6_20
REMARK   10  A    between atoms: C15_22  and  O8_23
REMARK                            x       y       z     vdW  Elec       q    Type
REMARK                         _______ _______ _______ _____ _____    ______ ____
ROOT
ATOM      1  C6  UNL     1     151.811 160.858 168.193  0.00  0.00    +0.000 A 
ATOM      2  C7  UNL     1     150.574 160.955 167.595  0.00  0.00    +0.000 A 
ATOM      3  C8  UNL     1     149.598 161.713 168.237  0.00  0.00    +0.000 A 
ATOM      4  C9  UNL     1     149.815 162.355 169.420  0.00  0.00    +0.000 A 
ATOM      5  C16 UNL     1     151.090 162.220 169.979  0.00  0.00    +0.000 A 
ATOM      6  C17 UNL     1     152.084 161.487 169.389  0.00  0.00    +0.000 A 
ENDROOT
BRANCH   1  10
ATOM      7  C2  UNL     1     154.847 158.535 166.347  0.00  0.00    +0.000 A 
ATOM      8  C3  UNL     1     154.388 158.247 167.625  0.00  0.00    +0.000 A 
ATOM      9  C4  UNL     1     153.403 159.016 168.197  0.00  0.00    +0.000 A 
ATOM     10  C5  UNL     1     152.849 160.073 167.543  0.00  0.00    +0.000 A 
ATOM     11  C18 UNL     1     153.317 160.349 166.267  0.00  0.00    +0.000 A 
ATOM     12  C19 UNL     1     154.310 159.591 165.664  0.00  0.00    +0.000 A 
BRANCH   7  14
ATOM     13  O1  UNL     1     156.978 158.193 165.348  0.00  0.00    +0.000 OA
ATOM     14  C1  UNL     1     155.885 157.714 165.757  0.00  0.00    +0.000 C 
BRANCH  14  15
ATOM     15  O2  UNL     1     155.671 156.329 165.634  0.00  0.00    +0.000 OA
ATOM     16  H1  UNL     1     156.471 155.696 165.664  0.00  0.00    +0.000 HD
ENDBRANCH  14  15
ENDBRANCH   7  14
ENDBRANCH   1  10
BRANCH   4  17
ATOM     17  O3  UNL     1     148.884 163.109 170.086  0.00  0.00    +0.000 OA
BRANCH  17  18
ATOM     18  C10 UNL     1     148.073 164.108 169.576  0.00  0.00    +0.000 C 
ATOM     19  O4  UNL     1     148.675 164.834 168.557  0.00  0.00    +0.000 OA
ATOM     20  C11 UNL     1     147.928 164.803 167.406  0.00  0.00    +0.000 C 
ATOM     21  C12 UNL     1     146.564 165.432 167.616  0.00  0.00    +0.000 C 
ATOM     22  C13 UNL     1     145.862 164.706 168.739  0.00  0.00    +0.000 C 
ATOM     23  C14 UNL     1     146.720 163.542 169.175  0.00  0.00    +0.000 C 
BRANCH  21  24
ATOM     24  O5  UNL     1     145.837 165.294 166.455  0.00  0.00    +0.000 OA
ATOM     25  H9  UNL     1     145.805 166.176 165.974  0.00  0.00    +0.000 HD
ENDBRANCH  21  24
BRANCH  23  26
ATOM     26  O6  UNL     1     146.160 163.021 170.367  0.00  0.00    +0.000 OA
ATOM     27  H12 UNL     1     146.275 162.019 170.299  0.00  0.00    +0.000 HD
ENDBRANCH  23  26
BRANCH  22  28
ATOM     28  O7  UNL     1     145.749 165.562 169.857  0.00  0.00    +0.000 OA
ATOM     29  H13 UNL     1     146.647 165.883 170.126  0.00  0.00    +0.000 HD
ENDBRANCH  22  28
BRANCH  20  30
ATOM     30  C15 UNL     1     148.653 165.485 166.250  0.00  0.00    +0.000 C 
BRANCH  30  31
ATOM     31  O8  UNL     1     148.251 166.826 166.272  0.00  0.00    +0.000 OA
ATOM     32  H16 UNL     1     147.293 166.851 166.467  0.00  0.00    +0.000 HD
ENDBRANCH  30  31
ENDBRANCH  20  30
ENDBRANCH  17  18
ENDBRANCH   4  17
TORSDOF 10
ENDMDL
MODEL 3
REMARK VINA RESULT:      -6.4      5.549      6.588
REMARK  Name = ./3D_structures\o55_MMV1633970_3D.pdb
REMARK  10 active torsions:
REMARK  status: ('A' for Active; 'I' for Inactive)
REMARK    1  A    between atoms: C1_2  and  O2_3
REMARK    2  A    between atoms: C1_2  and  C2_4
REMARK    3  A    between atoms: C5_7  and  C6_8
REMARK    4  A    between atoms: C9_11  and  O3_12
REMARK    5  A    between atoms: O3_12  and  C10_13
REMARK    6  A    between atoms: C11_15  and  C15_22
REMARK    7  A    between atoms: C12_16  and  O5_17
REMARK    8  A    between atoms: C13_18  and  O7_21
REMARK    9  A    between atoms: C14_19  and  O6_20
REMARK   10  A    between atoms: C15_22  and  O8_23
REMARK                            x       y       z     vdW  Elec       q    Type
REMARK                         _______ _______ _______ _____ _____    ______ ____
ROOT
ATOM      1  C6  UNL     1     146.431 156.198 167.035  0.00  0.00    +0.000 A 
ATOM      2  C7  UNL     1     146.948 157.053 166.086  0.00  0.00    +0.000 A 
ATOM      3  C8  UNL     1     146.512 158.375 166.094  0.00  0.00    +0.000 A 
ATOM      4  C9  UNL     1     145.605 158.853 166.993  0.00  0.00    +0.000 A 
ATOM      5  C16 UNL     1     145.115 157.939 167.932  0.00  0.00    +0.000 A 
ATOM      6  C17 UNL     1     145.511 156.629 167.967  0.00  0.00    +0.000 A 
ENDROOT
BRANCH   1  10
ATOM      7  C2  UNL     1     147.722 152.155 167.019  0.00  0.00    +0.000 A 
ATOM      8  C3  UNL     1     147.763 152.935 165.871  0.00  0.00    +0.000 A 
ATOM      9  C4  UNL     1     147.339 154.242 165.906  0.00  0.00    +0.000 A 
ATOM     10  C5  UNL     1     146.870 154.812 167.050  0.00  0.00    +0.000 A 
ATOM     11  C18 UNL     1     146.835 154.020 168.188  0.00  0.00    +0.000 A 
ATOM     12  C19 UNL     1     147.256 152.699 168.183  0.00  0.00    +0.000 A 
BRANCH   7  14
ATOM     13  O1  UNL     1     149.347 150.464 166.622  0.00  0.00    +0.000 OA
ATOM     14  C1  UNL     1     148.174 150.779 166.965  0.00  0.00    +0.000 C 
BRANCH  14  15
ATOM     15  O2  UNL     1     147.276 149.752 167.306  0.00  0.00    +0.000 OA
ATOM     16  H1  UNL     1     147.626 148.923 167.789  0.00  0.00    +0.000 HD
ENDBRANCH  14  15
ENDBRANCH   7  14
ENDBRANCH   1  10
BRANCH   4  17
ATOM     17  O3  UNL     1     145.148 160.145 167.035  0.00  0.00    +0.000 OA
BRANCH  17  18
ATOM     18  C10 UNL     1     145.847 161.285 167.391  0.00  0.00    +0.000 C 
ATOM     19  O4  UNL     1     146.050 162.156 166.328  0.00  0.00    +0.000 OA
ATOM     20  C11 UNL     1     145.542 163.402 166.594  0.00  0.00    +0.000 C 
ATOM     21  C12 UNL     1     146.229 164.036 167.789  0.00  0.00    +0.000 C 
ATOM     22  C13 UNL     1     146.073 163.120 168.981  0.00  0.00    +0.000 C 
ATOM     23  C14 UNL     1     145.193 161.958 168.587  0.00  0.00    +0.000 C 
BRANCH  21  24
ATOM     24  O5  UNL     1     145.620 165.242 168.054  0.00  0.00    +0.000 OA
ATOM     25  H9  UNL     1     145.560 165.374 169.049  0.00  0.00    +0.000 HD
ENDBRANCH  21  24
BRANCH  23  26
ATOM     26  O6  UNL     1     145.249 161.006 169.634  0.00  0.00    +0.000 OA
ATOM     27  H12 UNL     1     144.430 160.426 169.510  0.00  0.00    +0.000 HD
ENDBRANCH  23  26
BRANCH  22  28
ATOM     28  O7  UNL     1     147.330 162.573 169.324  0.00  0.00    +0.000 OA
ATOM     29  H13 UNL     1     147.284 161.584 169.296  0.00  0.00    +0.000 HD
ENDBRANCH  22  28
BRANCH  20  30
ATOM     30  C15 UNL     1     145.644 164.319 165.379  0.00  0.00    +0.000 C 
BRANCH  30  31
ATOM     31  O8  UNL     1     146.808 165.076 165.555  0.00  0.00    +0.000 OA
ATOM     32  H16 UNL     1     147.442 164.538 166.070  0.00  0.00    +0.000 HD
ENDBRANCH  30  31
ENDBRANCH  20  30
ENDBRANCH  17  18
ENDBRANCH   4  17
TORSDOF 10
ENDMDL
MODEL 4
REMARK VINA RESULT:      -6.3      1.775      2.665
REMARK  Name = ./3D_structures\o55_MMV1633970_3D.pdb
REMARK  10 active torsions:
REMARK  status: ('A' for Active; 'I' for Inactive)
REMARK    1  A    between atoms: C1_2  and  O2_3
REMARK    2  A    between atoms: C1_2  and  C2_4
REMARK    3  A    between atoms: C5_7  and  C6_8
REMARK    4  A    between atoms: C9_11  and  O3_12
REMARK    5  A    between atoms: O3_12  and  C10_13
REMARK    6  A    between atoms: C11_15  and  C15_22
REMARK    7  A    between atoms: C12_16  and  O5_17
REMARK    8  A    between atoms: C13_18  and  O7_21
REMARK    9  A    between atoms: C14_19  and  O6_20
REMARK   10  A    between atoms: C15_22  and  O8_23
REMARK                            x       y       z     vdW  Elec       q    Type
REMARK                         _______ _______ _______ _____ _____    ______ ____
ROOT
ATOM      1  C6  UNL     1     152.925 161.121 166.685  0.00  0.00    +0.000 A 
ATOM      2  C7  UNL     1     152.717 161.949 165.603  0.00  0.00    +0.000 A 
ATOM      3  C8  UNL     1     151.841 163.020 165.761  0.00  0.00    +0.000 A 
ATOM      4  C9  UNL     1     151.188 163.279 166.930  0.00  0.00    +0.000 A 
ATOM      5  C16 UNL     1     151.438 162.404 167.993  0.00  0.00    +0.000 A 
ATOM      6  C17 UNL     1     152.290 161.338 167.889  0.00  0.00    +0.000 A 
ENDROOT
BRANCH   1  10
ATOM      7  C2  UNL     1     155.562 157.814 166.335  0.00  0.00    +0.000 A 
ATOM      8  C3  UNL     1     154.633 157.897 167.364  0.00  0.00    +0.000 A 
ATOM      9  C4  UNL     1     153.791 158.980 167.452  0.00  0.00    +0.000 A 
ATOM     10  C5  UNL     1     153.836 159.996 166.547  0.00  0.00    +0.000 A 
ATOM     11  C18 UNL     1     154.768 159.900 165.525  0.00  0.00    +0.000 A 
ATOM     12  C19 UNL     1     155.630 158.819 165.411  0.00  0.00    +0.000 A 
BRANCH   7  14
ATOM     13  O1  UNL     1     157.351 156.448 167.104  0.00  0.00    +0.000 OA
ATOM     14  C1  UNL     1     156.441 156.665 166.257  0.00  0.00    +0.000 C 
BRANCH  14  15
ATOM     15  O2  UNL     1     156.279 155.754 165.198  0.00  0.00    +0.000 OA
ATOM     16  H1  UNL     1     157.061 155.154 164.931  0.00  0.00    +0.000 HD
ENDBRANCH  14  15
ENDBRANCH   7  14
ENDBRANCH   1  10
BRANCH   4  17
ATOM     17  O3  UNL     1     150.317 164.319 167.129  0.00  0.00    +0.000 OA
BRANCH  17  18
ATOM     18  C10 UNL     1     148.936 164.308 167.025  0.00  0.00    +0.000 C 
ATOM     19  O4  UNL     1     148.317 163.596 168.045  0.00  0.00    +0.000 OA
ATOM     20  C11 UNL     1     147.418 164.375 168.729  0.00  0.00    +0.000 C 
ATOM     21  C12 UNL     1     146.303 164.859 167.821  0.00  0.00    +0.000 C 
ATOM     22  C13 UNL     1     146.912 165.619 166.666  0.00  0.00    +0.000 C 
ATOM     23  C14 UNL     1     148.402 165.724 166.887  0.00  0.00    +0.000 C 
BRANCH  21  24
ATOM     24  O5  UNL     1     145.486 165.698 168.543  0.00  0.00    +0.000 OA
ATOM     25  H9  UNL     1     144.570 165.291 168.616  0.00  0.00    +0.000 HD
ENDBRANCH  21  24
BRANCH  23  26
ATOM     26  O6  UNL     1     148.976 166.231 165.696  0.00  0.00    +0.000 OA
ATOM     27  H12 UNL     1     148.433 165.825 164.945  0.00  0.00    +0.000 HD
ENDBRANCH  23  26
BRANCH  22  28
ATOM     28  O7  UNL     1     146.735 164.885 165.472  0.00  0.00    +0.000 OA
ATOM     29  H13 UNL     1     145.864 164.413 165.494  0.00  0.00    +0.000 HD
ENDBRANCH  22  28
BRANCH  20  30
ATOM     30  C15 UNL     1     146.839 163.636 169.930  0.00  0.00    +0.000 C 
BRANCH  30  31
ATOM     31  O8  UNL     1     146.427 164.621 170.835  0.00  0.00    +0.000 OA
ATOM     32  H16 UNL     1     145.449 164.637 170.839  0.00  0.00    +0.000 HD
ENDBRANCH  30  31
ENDBRANCH  20  30
ENDBRANCH  17  18
ENDBRANCH   4  17
TORSDOF 10
ENDMDL
MODEL 5
REMARK VINA RESULT:      -6.2      5.446      6.853
REMARK  Name = ./3D_structures\o55_MMV1633970_3D.pdb
REMARK  10 active torsions:
REMARK  status: ('A' for Active; 'I' for Inactive)
REMARK    1  A    between atoms: C1_2  and  O2_3
REMARK    2  A    between atoms: C1_2  and  C2_4
REMARK    3  A    between atoms: C5_7  and  C6_8
REMARK    4  A    between atoms: C9_11  and  O3_12
REMARK    5  A    between atoms: O3_12  and  C10_13
REMARK    6  A    between atoms: C11_15  and  C15_22
REMARK    7  A    between atoms: C12_16  and  O5_17
REMARK    8  A    between atoms: C13_18  and  O7_21
REMARK    9  A    between atoms: C14_19  and  O6_20
REMARK   10  A    between atoms: C15_22  and  O8_23
REMARK                            x       y       z     vdW  Elec       q    Type
REMARK                         _______ _______ _______ _____ _____    ______ ____
ROOT
ATOM      1  C6  UNL     1     146.918 156.452 167.344  0.00  0.00    +0.000 A 
ATOM      2  C7  UNL     1     147.196 157.167 168.488  0.00  0.00    +0.000 A 
ATOM      3  C8  UNL     1     147.227 158.556 168.397  0.00  0.00    +0.000 A 
ATOM      4  C9  UNL     1     146.997 159.229 167.234  0.00  0.00    +0.000 A 
ATOM      5  C16 UNL     1     146.720 158.450 166.105  0.00  0.00    +0.000 A 
ATOM      6  C17 UNL     1     146.677 157.083 166.142  0.00  0.00    +0.000 A 
ENDROOT
BRANCH   1  10
ATOM      7  C2  UNL     1     146.805 152.217 167.602  0.00  0.00    +0.000 A 
ATOM      8  C3  UNL     1     146.827 153.013 168.739  0.00  0.00    +0.000 A 
ATOM      9  C4  UNL     1     146.863 154.383 168.625  0.00  0.00    +0.000 A 
ATOM     10  C5  UNL     1     146.878 155.000 167.411  0.00  0.00    +0.000 A 
ATOM     11  C18 UNL     1     146.856 154.191 166.285  0.00  0.00    +0.000 A 
ATOM     12  C19 UNL     1     146.819 152.807 166.369  0.00  0.00    +0.000 A 
BRANCH   7  14
ATOM     13  O1  UNL     1     147.592 150.016 167.162  0.00  0.00    +0.000 OA
ATOM     14  C1  UNL     1     146.766 150.775 167.740  0.00  0.00    +0.000 C 
BRANCH  14  15
ATOM     15  O2  UNL     1     145.772 150.194 168.548  0.00  0.00    +0.000 OA
ATOM     16  H1  UNL     1     144.838 150.049 168.164  0.00  0.00    +0.000 HD
ENDBRANCH  14  15
ENDBRANCH   7  14
ENDBRANCH   1  10
BRANCH   4  17
ATOM     17  O3  UNL     1     147.019 160.593 167.099  0.00  0.00    +0.000 OA
BRANCH  17  18
ATOM     18  C10 UNL     1     146.176 161.522 167.686  0.00  0.00    +0.000 C 
ATOM     19  O4  UNL     1     146.705 162.087 168.840  0.00  0.00    +0.000 OA
ATOM     20  C11 UNL     1     146.769 163.454 168.747  0.00  0.00    +0.000 C 
ATOM     21  C12 UNL     1     145.390 164.063 168.579  0.00  0.00    +0.000 C 
ATOM     22  C13 UNL     1     144.742 163.465 167.351  0.00  0.00    +0.000 C 
ATOM     23  C14 UNL     1     145.741 162.563 166.668  0.00  0.00    +0.000 C 
BRANCH  21  24
ATOM     24  O5  UNL     1     145.530 165.422 168.408  0.00  0.00    +0.000 OA
ATOM     25  H9  UNL     1     145.565 165.869 169.308  0.00  0.00    +0.000 HD
ENDBRANCH  21  24
BRANCH  23  26
ATOM     26  O6  UNL     1     145.049 161.843 165.663  0.00  0.00    +0.000 OA
ATOM     27  H12 UNL     1     145.469 162.133 164.790  0.00  0.00    +0.000 HD
ENDBRANCH  23  26
BRANCH  22  28
ATOM     28  O7  UNL     1     143.660 162.644 167.740  0.00  0.00    +0.000 OA
ATOM     29  H13 UNL     1     143.085 163.131 168.383  0.00  0.00    +0.000 HD
ENDBRANCH  22  28
BRANCH  20  30
ATOM     30  C15 UNL     1     147.471 164.064 169.956  0.00  0.00    +0.000 C 
BRANCH  30  31
ATOM     31  O8  UNL     1     146.461 164.563 170.787  0.00  0.00    +0.000 OA
ATOM     32  H16 UNL     1     146.840 165.290 171.319  0.00  0.00    +0.000 HD
ENDBRANCH  30  31
ENDBRANCH  20  30
ENDBRANCH  17  18
ENDBRANCH   4  17
TORSDOF 10
ENDMDL
MODEL 6
REMARK VINA RESULT:      -6.1     17.359     19.341
REMARK  Name = ./3D_structures\o55_MMV1633970_3D.pdb
REMARK  10 active torsions:
REMARK  status: ('A' for Active; 'I' for Inactive)
REMARK    1  A    between atoms: C1_2  and  O2_3
REMARK    2  A    between atoms: C1_2  and  C2_4
REMARK    3  A    between atoms: C5_7  and  C6_8
REMARK    4  A    between atoms: C9_11  and  O3_12
REMARK    5  A    between atoms: O3_12  and  C10_13
REMARK    6  A    between atoms: C11_15  and  C15_22
REMARK    7  A    between atoms: C12_16  and  O5_17
REMARK    8  A    between atoms: C13_18  and  O7_21
REMARK    9  A    between atoms: C14_19  and  O6_20
REMARK   10  A    between atoms: C15_22  and  O8_23
REMARK                            x       y       z     vdW  Elec       q    Type
REMARK                         _______ _______ _______ _____ _____    ______ ____
ROOT
ATOM      1  C6  UNL     1     163.713 149.621 168.343  0.00  0.00    +0.000 A 
ATOM      2  C7  UNL     1     163.330 148.436 167.753  0.00  0.00    +0.000 A 
ATOM      3  C8  UNL     1     162.270 147.737 168.325  0.00  0.00    +0.000 A 
ATOM      4  C9  UNL     1     161.604 148.173 169.432  0.00  0.00    +0.000 A 
ATOM      5  C16 UNL     1     162.037 149.382 169.987  0.00  0.00    +0.000 A 
ATOM      6  C17 UNL     1     163.074 150.107 169.464  0.00  0.00    +0.000 A 
ENDROOT
BRANCH   1  10
ATOM      7  C2  UNL     1     166.963 151.810 166.712  0.00  0.00    +0.000 A 
ATOM      8  C3  UNL     1     166.996 151.321 168.011  0.00  0.00    +0.000 A 
ATOM      9  C4  UNL     1     165.929 150.615 168.513  0.00  0.00    +0.000 A 
ATOM     10  C5  UNL     1     164.817 150.372 167.766  0.00  0.00    +0.000 A 
ATOM     11  C18 UNL     1     164.798 150.867 166.471  0.00  0.00    +0.000 A 
ATOM     12  C19 UNL     1     165.860 151.582 165.938  0.00  0.00    +0.000 A 
BRANCH   7  14
ATOM     13  O1  UNL     1     169.234 152.028 166.039  0.00  0.00    +0.000 OA
ATOM     14  C1  UNL     1     168.097 152.552 166.198  0.00  0.00    +0.000 C 
BRANCH  14  15
ATOM     15  O2  UNL     1     167.930 153.907 165.863  0.00  0.00    +0.000 OA
ATOM     16  H1  UNL     1     168.273 154.244 164.962  0.00  0.00    +0.000 HD
ENDBRANCH  14  15
ENDBRANCH   7  14
ENDBRANCH   1  10
BRANCH   4  17
ATOM     17  O3  UNL     1     160.558 147.517 170.027  0.00  0.00    +0.000 OA
BRANCH  17  18
ATOM     18  C10 UNL     1     160.523 146.213 170.494  0.00  0.00    +0.000 C 
ATOM     19  O4  UNL     1     160.176 145.292 169.514  0.00  0.00    +0.000 OA
ATOM     20  C11 UNL     1     161.137 144.323 169.370  0.00  0.00    +0.000 C 
ATOM     21  C12 UNL     1     161.315 143.526 170.649  0.00  0.00    +0.000 C 
ATOM     22  C13 UNL     1     161.665 144.477 171.769  0.00  0.00    +0.000 C 
ATOM     23  C14 UNL     1     161.825 145.865 171.195  0.00  0.00    +0.000 C 
BRANCH  21  24
ATOM     24  O5  UNL     1     162.345 142.633 170.466  0.00  0.00    +0.000 OA
ATOM     25  H9  UNL     1     162.014 141.700 170.644  0.00  0.00    +0.000 HD
ENDBRANCH  21  24
BRANCH  23  26
ATOM     26  O6  UNL     1     161.924 146.768 172.281  0.00  0.00    +0.000 OA
ATOM     27  H12 UNL     1     161.453 147.608 171.973  0.00  0.00    +0.000 HD
ENDBRANCH  23  26
BRANCH  22  28
ATOM     28  O7  UNL     1     160.592 144.545 172.685  0.00  0.00    +0.000 OA
ATOM     29  H13 UNL     1     160.007 145.313 172.461  0.00  0.00    +0.000 HD
ENDBRANCH  22  28
BRANCH  20  30
ATOM     30  C15 UNL     1     160.821 143.391 168.206  0.00  0.00    +0.000 C 
BRANCH  30  31
ATOM     31  O8  UNL     1     162.039 143.141 167.562  0.00  0.00    +0.000 OA
ATOM     32  H16 UNL     1     162.106 143.747 166.798  0.00  0.00    +0.000 HD
ENDBRANCH  30  31
ENDBRANCH  20  30
ENDBRANCH  17  18
ENDBRANCH   4  17
TORSDOF 10
ENDMDL
MODEL 7
REMARK VINA RESULT:      -6.0     17.860     19.763
REMARK  Name = ./3D_structures\o55_MMV1633970_3D.pdb
REMARK  10 active torsions:
REMARK  status: ('A' for Active; 'I' for Inactive)
REMARK    1  A    between atoms: C1_2  and  O2_3
REMARK    2  A    between atoms: C1_2  and  C2_4
REMARK    3  A    between atoms: C5_7  and  C6_8
REMARK    4  A    between atoms: C9_11  and  O3_12
REMARK    5  A    between atoms: O3_12  and  C10_13
REMARK    6  A    between atoms: C11_15  and  C15_22
REMARK    7  A    between atoms: C12_16  and  O5_17
REMARK    8  A    between atoms: C13_18  and  O7_21
REMARK    9  A    between atoms: C14_19  and  O6_20
REMARK   10  A    between atoms: C15_22  and  O8_23
REMARK                            x       y       z     vdW  Elec       q    Type
REMARK                         _______ _______ _______ _____ _____    ______ ____
ROOT
ATOM      1  C6  UNL     1     164.675 149.786 168.148  0.00  0.00    +0.000 A 
ATOM      2  C7  UNL     1     163.696 150.361 168.929  0.00  0.00    +0.000 A 
ATOM      3  C8  UNL     1     162.726 149.525 169.477  0.00  0.00    +0.000 A 
ATOM      4  C9  UNL     1     162.707 148.176 169.274  0.00  0.00    +0.000 A 
ATOM      5  C16 UNL     1     163.726 147.650 168.473  0.00  0.00    +0.000 A 
ATOM      6  C17 UNL     1     164.703 148.428 167.912  0.00  0.00    +0.000 A 
ENDROOT
BRANCH   1  10
ATOM      7  C2  UNL     1     167.643 152.259 166.390  0.00  0.00    +0.000 A 
ATOM      8  C3  UNL     1     166.589 151.747 165.645  0.00  0.00    +0.000 A 
ATOM      9  C4  UNL     1     165.642 150.950 166.242  0.00  0.00    +0.000 A 
ATOM     10  C5  UNL     1     165.701 150.636 167.565  0.00  0.00    +0.000 A 
ATOM     11  C18 UNL     1     166.759 151.155 168.296  0.00  0.00    +0.000 A 
ATOM     12  C19 UNL     1     167.729 151.962 167.722  0.00  0.00    +0.000 A 
BRANCH   7  14
ATOM     13  O1  UNL     1     169.807 152.705 165.511  0.00  0.00    +0.000 OA
ATOM     14  C1  UNL     1     168.632 153.100 165.746  0.00  0.00    +0.000 C 
BRANCH  14  15
ATOM     15  O2  UNL     1     168.275 154.406 165.367  0.00  0.00    +0.000 OA
ATOM     16  H1  UNL     1     167.829 155.020 166.050  0.00  0.00    +0.000 HD
ENDBRANCH  14  15
ENDBRANCH   7  14
ENDBRANCH   1  10
BRANCH   4  17
ATOM     17  O3  UNL     1     161.772 147.318 169.792  0.00  0.00    +0.000 OA
BRANCH  17  18
ATOM     18  C10 UNL     1     161.979 146.072 170.359  0.00  0.00    +0.000 C 
ATOM     19  O4  UNL     1     162.671 146.127 171.562  0.00  0.00    +0.000 OA
ATOM     20  C11 UNL     1     161.962 145.540 172.579  0.00  0.00    +0.000 C 
ATOM     21  C12 UNL     1     161.718 144.067 172.305  0.00  0.00    +0.000 C 
ATOM     22  C13 UNL     1     160.992 143.933 170.987  0.00  0.00    +0.000 C 
ATOM     23  C14 UNL     1     160.667 145.314 170.470  0.00  0.00    +0.000 C 
BRANCH  21  24
ATOM     24  O5  UNL     1     160.934 143.560 173.315  0.00  0.00    +0.000 OA
ATOM     25  H9  UNL     1     160.224 144.230 173.555  0.00  0.00    +0.000 HD
ENDBRANCH  21  24
BRANCH  23  26
ATOM     26  O6  UNL     1     160.198 145.172 169.140  0.00  0.00    +0.000 OA
ATOM     27  H12 UNL     1     160.886 144.595 168.676  0.00  0.00    +0.000 HD
ENDBRANCH  23  26
BRANCH  22  28
ATOM     28  O7  UNL     1     161.849 143.339 170.034  0.00  0.00    +0.000 OA
ATOM     29  H13 UNL     1     161.326 143.064 169.238  0.00  0.00    +0.000 HD
ENDBRANCH  22  28
BRANCH  20  30
ATOM     30  C15 UNL     1     162.659 145.718 173.923  0.00  0.00    +0.000 C 
BRANCH  30  31
ATOM     31  O8  UNL     1     163.907 146.290 173.646  0.00  0.00    +0.000 OA
ATOM     32  H16 UNL     1     163.774 147.248 173.502  0.00  0.00    +0.000 HD
ENDBRANCH  30  31
ENDBRANCH  20  30
ENDBRANCH  17  18
ENDBRANCH   4  17
TORSDOF 10
ENDMDL
MODEL 8
REMARK VINA RESULT:      -6.0      2.473      3.711
REMARK  Name = ./3D_structures\o55_MMV1633970_3D.pdb
REMARK  10 active torsions:
REMARK  status: ('A' for Active; 'I' for Inactive)
REMARK    1  A    between atoms: C1_2  and  O2_3
REMARK    2  A    between atoms: C1_2  and  C2_4
REMARK    3  A    between atoms: C5_7  and  C6_8
REMARK    4  A    between atoms: C9_11  and  O3_12
REMARK    5  A    between atoms: O3_12  and  C10_13
REMARK    6  A    between atoms: C11_15  and  C15_22
REMARK    7  A    between atoms: C12_16  and  O5_17
REMARK    8  A    between atoms: C13_18  and  O7_21
REMARK    9  A    between atoms: C14_19  and  O6_20
REMARK   10  A    between atoms: C15_22  and  O8_23
REMARK                            x       y       z     vdW  Elec       q    Type
REMARK                         _______ _______ _______ _____ _____    ______ ____
ROOT
ATOM      1  C6  UNL     1     153.436 159.978 166.290  0.00  0.00    +0.000 A 
ATOM      2  C7  UNL     1     153.072 160.027 167.618  0.00  0.00    +0.000 A 
ATOM      3  C8  UNL     1     151.895 160.694 167.947  0.00  0.00    +0.000 A 
ATOM      4  C9  UNL     1     151.097 161.294 167.018  0.00  0.00    +0.000 A 
ATOM      5  C16 UNL     1     151.517 161.212 165.686  0.00  0.00    +0.000 A 
ATOM      6  C17 UNL     1     152.665 160.567 165.310  0.00  0.00    +0.000 A 
ENDROOT
BRANCH   1  10
ATOM      7  C2  UNL     1     156.990 157.910 165.239  0.00  0.00    +0.000 A 
ATOM      8  C3  UNL     1     156.001 157.310 166.006  0.00  0.00    +0.000 A 
ATOM      9  C4  UNL     1     154.860 158.004 166.331  0.00  0.00    +0.000 A 
ATOM     10  C5  UNL     1     154.660 159.286 165.918  0.00  0.00    +0.000 A 
ATOM     11  C18 UNL     1     155.656 159.872 165.152  0.00  0.00    +0.000 A 
ATOM     12  C19 UNL     1     156.818 159.196 164.809  0.00  0.00    +0.000 A 
BRANCH   7  14
ATOM     13  O1  UNL     1     159.046 157.593 164.085  0.00  0.00    +0.000 OA
ATOM     14  C1  UNL     1     158.187 157.164 164.904  0.00  0.00    +0.000 C 
BRANCH  14  15
ATOM     15  O2  UNL     1     158.404 155.916 165.513  0.00  0.00    +0.000 OA
ATOM     16  H1  UNL     1     158.904 155.873 166.402  0.00  0.00    +0.000 HD
ENDBRANCH  14  15
ENDBRANCH   7  14
ENDBRANCH   1  10
BRANCH   4  17
ATOM     17  O3  UNL     1     149.933 161.962 167.298  0.00  0.00    +0.000 OA
BRANCH  17  18
ATOM     18  C10 UNL     1     149.767 163.308 167.576  0.00  0.00    +0.000 C 
ATOM     19  O4  UNL     1     150.612 164.126 166.837  0.00  0.00    +0.000 OA
ATOM     20  C11 UNL     1     149.909 165.052 166.110  0.00  0.00    +0.000 C 
ATOM     21  C12 UNL     1     149.115 165.978 167.013  0.00  0.00    +0.000 C 
ATOM     22  C13 UNL     1     148.192 165.146 167.872  0.00  0.00    +0.000 C 
ATOM     23  C14 UNL     1     148.305 163.702 167.445  0.00  0.00    +0.000 C 
BRANCH  21  24
ATOM     24  O5  UNL     1     148.370 166.824 166.224  0.00  0.00    +0.000 OA
ATOM     25  H9  UNL     1     148.985 167.369 165.645  0.00  0.00    +0.000 HD
ENDBRANCH  21  24
BRANCH  23  26
ATOM     26  O6  UNL     1     147.615 162.918 168.403  0.00  0.00    +0.000 OA
ATOM     27  H12 UNL     1     146.635 163.113 168.249  0.00  0.00    +0.000 HD
ENDBRANCH  23  26
BRANCH  22  28
ATOM     28  O7  UNL     1     148.620 165.201 169.217  0.00  0.00    +0.000 OA
ATOM     29  H13 UNL     1     148.967 166.106 169.422  0.00  0.00    +0.000 HD
ENDBRANCH  22  28
BRANCH  20  30
ATOM     30  C15 UNL     1     150.825 165.861 165.198  0.00  0.00    +0.000 C 
BRANCH  30  31
ATOM     31  O8  UNL     1     151.507 166.762 166.025  0.00  0.00    +0.000 OA
ATOM     32  H16 UNL     1     152.440 166.791 165.734  0.00  0.00    +0.000 HD
ENDBRANCH  30  31
ENDBRANCH  20  30
ENDBRANCH  17  18
ENDBRANCH   4  17
TORSDOF 10
ENDMDL
MODEL 9
REMARK VINA RESULT:      -5.8      1.823      3.575
REMARK  Name = ./3D_structures\o55_MMV1633970_3D.pdb
REMARK  10 active torsions:
REMARK  status: ('A' for Active; 'I' for Inactive)
REMARK    1  A    between atoms: C1_2  and  O2_3
REMARK    2  A    between atoms: C1_2  and  C2_4
REMARK    3  A    between atoms: C5_7  and  C6_8
REMARK    4  A    between atoms: C9_11  and  O3_12
REMARK    5  A    between atoms: O3_12  and  C10_13
REMARK    6  A    between atoms: C11_15  and  C15_22
REMARK    7  A    between atoms: C12_16  and  O5_17
REMARK    8  A    between atoms: C13_18  and  O7_21
REMARK    9  A    between atoms: C14_19  and  O6_20
REMARK   10  A    between atoms: C15_22  and  O8_23
REMARK                            x       y       z     vdW  Elec       q    Type
REMARK                         _______ _______ _______ _____ _____    ______ ____
ROOT
ATOM      1  C6  UNL     1     153.232 160.571 166.188  0.00  0.00    +0.000 A 
ATOM      2  C7  UNL     1     152.591 160.459 167.402  0.00  0.00    +0.000 A 
ATOM      3  C8  UNL     1     151.518 161.309 167.654  0.00  0.00    +0.000 A 
ATOM      4  C9  UNL     1     151.080 162.238 166.756  0.00  0.00    +0.000 A 
ATOM      5  C16 UNL     1     151.770 162.306 165.541  0.00  0.00    +0.000 A 
ATOM      6  C17 UNL     1     152.830 161.494 165.245  0.00  0.00    +0.000 A 
ENDROOT
BRANCH   1  10
ATOM      7  C2  UNL     1     156.537 158.057 165.309  0.00  0.00    +0.000 A 
ATOM      8  C3  UNL     1     156.477 159.366 164.848  0.00  0.00    +0.000 A 
ATOM      9  C4  UNL     1     155.394 160.157 165.150  0.00  0.00    +0.000 A 
ATOM     10  C5  UNL     1     154.356 159.695 165.899  0.00  0.00    +0.000 A 
ATOM     11  C18 UNL     1     154.430 158.386 166.352  0.00  0.00    +0.000 A 
ATOM     12  C19 UNL     1     155.509 157.565 166.064  0.00  0.00    +0.000 A 
BRANCH   7  14
ATOM     13  O1  UNL     1     158.830 157.725 164.773  0.00  0.00    +0.000 OA
ATOM     14  C1  UNL     1     157.686 157.236 164.984  0.00  0.00    +0.000 C 
BRANCH  14  15
ATOM     15  O2  UNL     1     157.526 155.842 164.899  0.00  0.00    +0.000 OA
ATOM     16  H1  UNL     1     158.148 155.303 164.295  0.00  0.00    +0.000 HD
ENDBRANCH  14  15
ENDBRANCH   7  14
ENDBRANCH   1  10
BRANCH   4  17
ATOM     17  O3  UNL     1     150.030 163.094 166.963  0.00  0.00    +0.000 OA
BRANCH  17  18
ATOM     18  C10 UNL     1     149.247 163.226 168.098  0.00  0.00    +0.000 C 
ATOM     19  O4  UNL     1     149.863 163.957 169.105  0.00  0.00    +0.000 OA
ATOM     20  C11 UNL     1     149.104 165.037 169.480  0.00  0.00    +0.000 C 
ATOM     21  C12 UNL     1     147.763 164.602 170.041  0.00  0.00    +0.000 C 
ATOM     22  C13 UNL     1     147.049 163.770 169.001  0.00  0.00    +0.000 C 
ATOM     23  C14 UNL     1     147.873 163.764 167.736  0.00  0.00    +0.000 C 
BRANCH  21  24
ATOM     24  O5  UNL     1     147.020 165.727 170.318  0.00  0.00    +0.000 OA
ATOM     25  H9  UNL     1     146.173 165.460 170.789  0.00  0.00    +0.000 HD
ENDBRANCH  21  24
BRANCH  23  26
ATOM     26  O6  UNL     1     147.308 162.802 166.862  0.00  0.00    +0.000 OA
ATOM     27  H12 UNL     1     147.012 162.042 167.459  0.00  0.00    +0.000 HD
ENDBRANCH  23  26
BRANCH  22  28
ATOM     28  O7  UNL     1     146.975 162.428 169.438  0.00  0.00    +0.000 OA
ATOM     29  H13 UNL     1     147.119 161.818 168.671  0.00  0.00    +0.000 HD
ENDBRANCH  22  28
BRANCH  20  30
ATOM     30  C15 UNL     1     149.838 165.914 170.488  0.00  0.00    +0.000 C 
BRANCH  30  31
ATOM     31  O8  UNL     1     149.703 165.282 171.730  0.00  0.00    +0.000 OA
ATOM     32  H16 UNL     1     148.986 164.621 171.656  0.00  0.00    +0.000 HD
ENDBRANCH  30  31
ENDBRANCH  20  30
ENDBRANCH  17  18
ENDBRANCH   4  17
TORSDOF 10
ENDMDL
