MODEL 1
REMARK VINA RESULT:      -7.4      0.000      0.000
REMARK  Name = ./3D_structures\o56_MMV1633965_3D.pdb
REMARK  11 active torsions:
REMARK  status: ('A' for Active; 'I' for Inactive)
REMARK    1  A    between atoms: C2_3  and  N1_4
REMARK    2  A    between atoms: C3_5  and  C4_7
REMARK    3  A    between atoms: C7_10  and  C8_11
REMARK    4  A    between atoms: C8_11  and  O2_12
REMARK    5  A    between atoms: O2_12  and  C9_13
REMARK    6  A    between atoms: C12_16  and  N2_17
REMARK    7  A    between atoms: C17_24  and  O8_39
REMARK    8  A    between atoms: N3_26  and  C25_36
REMARK    9  A    between atoms: C20_28  and  C24_33
REMARK   10  A    between atoms: C24_33  and  O7_35
REMARK   11  A    between atoms: O8_39  and  C28_40
REMARK                            x       y       z     vdW  Elec       q    Type
REMARK                         _______ _______ _______ _____ _____    ______ ____
ROOT
ATOM      1  F1  UNL     1     151.310 163.681 167.443  0.00  0.00    +0.000 F 
ATOM      2  C1  UNL     1     149.954 163.713 167.391  0.00  0.00    +0.000 A 
ATOM      3  C2  UNL     1     149.272 162.620 167.884  0.00  0.00    +0.000 A 
ATOM      4  C17 UNL     1     147.897 162.633 167.840  0.00  0.00    +0.000 A 
ATOM      5  C18 UNL     1     147.192 163.696 167.326  0.00  0.00    +0.000 A 
ATOM      6  N3  UNL     1     145.856 163.729 167.290  0.00  0.00    +0.000 N 
ATOM      7  C19 UNL     1     145.244 164.832 166.770  0.00  0.00    +0.000 A 
ATOM      8  C20 UNL     1     145.907 165.920 166.278  0.00  0.00    +0.000 A 
ATOM      9  C21 UNL     1     147.276 165.901 166.309  0.00  0.00    +0.000 A 
ATOM     10  C22 UNL     1     147.898 164.783 166.836  0.00  0.00    +0.000 A 
ATOM     11  C23 UNL     1     149.275 164.807 166.861  0.00  0.00    +0.000 A 
ATOM     12  O5  UNL     1     147.919 166.878 165.868  0.00  0.00    +0.000 OA
ENDROOT
BRANCH   3  13
ATOM     13  N1  UNL     1     149.982 161.532 168.432  0.00  0.00    +0.000 N 
ATOM     14  C3  UNL     1     150.580 161.527 169.710  0.00  0.00    +0.000 C 
ATOM     15  O1  UNL     1     150.459 162.587 170.396  0.00  0.00    +0.000 OA
ATOM     16  H1  UNL     1     150.086 160.638 167.857  0.00  0.00    +0.000 HD
BRANCH  14  17
ATOM     17  C4  UNL     1     151.294 160.337 170.175  0.00  0.00    +0.000 C 
ATOM     18  C5  UNL     1     151.478 159.287 169.132  0.00  0.00    +0.000 C 
ATOM     19  C6  UNL     1     152.674 158.443 169.518  0.00  0.00    +0.000 C 
ATOM     20  C7  UNL     1     153.961 159.225 169.448  0.00  0.00    +0.000 C 
ATOM     21  C15 UNL     1     153.639 160.701 169.632  0.00  0.00    +0.000 C 
ATOM     22  C16 UNL     1     152.629 160.793 170.757  0.00  0.00    +0.000 C 
BRANCH  20  23
ATOM     23  C8  UNL     1     154.638 159.054 168.093  0.00  0.00    +0.000 C 
BRANCH  23  24
ATOM     24  O2  UNL     1     153.624 159.111 167.117  0.00  0.00    +0.000 OA
BRANCH  24  25
ATOM     25  C9  UNL     1     153.462 160.237 166.292  0.00  0.00    +0.000 A 
ATOM     26  C10 UNL     1     154.531 161.038 165.960  0.00  0.00    +0.000 A 
ATOM     27  C11 UNL     1     154.369 162.148 165.147  0.00  0.00    +0.000 A 
ATOM     28  C12 UNL     1     153.134 162.493 164.639  0.00  0.00    +0.000 A 
ATOM     29  C13 UNL     1     152.062 161.694 164.969  0.00  0.00    +0.000 A 
ATOM     30  C14 UNL     1     152.226 160.580 165.786  0.00  0.00    +0.000 A 
BRANCH  28  31
ATOM     31  N2  UNL     1     152.960 163.633 163.802  0.00  0.00    +0.000 N 
ATOM     32  O3  UNL     1     151.832 164.391 163.938  0.00  0.00    +0.000 OA
ATOM     33  O4  UNL     1     153.793 163.972 162.948  0.00  0.00    +0.000 OA
ENDBRANCH  28  31
ENDBRANCH  24  25
ENDBRANCH  23  24
ENDBRANCH  20  23
ENDBRANCH  14  17
ENDBRANCH   3  13
BRANCH   6  34
ATOM     34  C25 UNL     1     145.009 162.654 167.803  0.00  0.00    +0.000 C 
ATOM     35  C26 UNL     1     144.252 161.873 166.696  0.00  0.00    +0.000 C 
ATOM     36  C27 UNL     1     143.558 162.759 167.678  0.00  0.00    +0.000 C 
ENDBRANCH   6  34
BRANCH   8  37
ATOM     37  C24 UNL     1     145.215 167.085 165.727  0.00  0.00    +0.000 C 
ATOM     38  O6  UNL     1     144.017 167.041 165.358  0.00  0.00    +0.000 OA
BRANCH  37  39
ATOM     39  O7  UNL     1     145.892 168.285 165.601  0.00  0.00    +0.000 OA
ATOM     40  H20 UNL     1     146.898 168.298 165.708  0.00  0.00    +0.000 HD
ENDBRANCH  37  39
ENDBRANCH   8  37
BRANCH   4  41
ATOM     41  O8  UNL     1     147.247 161.526 168.338  0.00  0.00    +0.000 OA
ATOM     42  C28 UNL     1     147.364 160.271 167.701  0.00  0.00    +0.000 C 
ENDBRANCH   4  41
TORSDOF 10
ENDMDL
MODEL 2
REMARK VINA RESULT:      -7.3      3.733      5.774
REMARK  Name = ./3D_structures\o56_MMV1633965_3D.pdb
REMARK  11 active torsions:
REMARK  status: ('A' for Active; 'I' for Inactive)
REMARK    1  A    between atoms: C2_3  and  N1_4
REMARK    2  A    between atoms: C3_5  and  C4_7
REMARK    3  A    between atoms: C7_10  and  C8_11
REMARK    4  A    between atoms: C8_11  and  O2_12
REMARK    5  A    between atoms: O2_12  and  C9_13
REMARK    6  A    between atoms: C12_16  and  N2_17
REMARK    7  A    between atoms: C17_24  and  O8_39
REMARK    8  A    between atoms: N3_26  and  C25_36
REMARK    9  A    between atoms: C20_28  and  C24_33
REMARK   10  A    between atoms: C24_33  and  O7_35
REMARK   11  A    between atoms: O8_39  and  C28_40
REMARK                            x       y       z     vdW  Elec       q    Type
REMARK                         _______ _______ _______ _____ _____    ______ ____
ROOT
ATOM      1  F1  UNL     1     151.151 164.387 167.055  0.00  0.00    +0.000 F 
ATOM      2  C1  UNL     1     149.799 164.265 167.075  0.00  0.00    +0.000 A 
ATOM      3  C2  UNL     1     149.272 163.104 167.599  0.00  0.00    +0.000 A 
ATOM      4  C17 UNL     1     147.905 162.961 167.628  0.00  0.00    +0.000 A 
ATOM      5  C18 UNL     1     147.057 163.936 167.157  0.00  0.00    +0.000 A 
ATOM      6  N3  UNL     1     145.727 163.818 167.192  0.00  0.00    +0.000 N 
ATOM      7  C19 UNL     1     144.966 164.843 166.709  0.00  0.00    +0.000 A 
ATOM      8  C20 UNL     1     145.476 165.998 166.186  0.00  0.00    +0.000 A 
ATOM      9  C21 UNL     1     146.838 166.134 166.144  0.00  0.00    +0.000 A 
ATOM     10  C22 UNL     1     147.609 165.094 166.634  0.00  0.00    +0.000 A 
ATOM     11  C23 UNL     1     148.974 165.274 166.586  0.00  0.00    +0.000 A 
ATOM     12  O5  UNL     1     147.342 167.177 165.673  0.00  0.00    +0.000 OA
ENDROOT
BRANCH   3  13
ATOM     13  N1  UNL     1     150.129 162.104 168.106  0.00  0.00    +0.000 N 
ATOM     14  C3  UNL     1     150.627 162.068 169.425  0.00  0.00    +0.000 C 
ATOM     15  O1  UNL     1     150.267 163.011 170.193  0.00  0.00    +0.000 OA
ATOM     16  H1  UNL     1     150.435 161.309 167.462  0.00  0.00    +0.000 HD
BRANCH  14  17
ATOM     17  C4  UNL     1     151.512 160.978 169.840  0.00  0.00    +0.000 C 
ATOM     18  C5  UNL     1     151.371 160.587 171.271  0.00  0.00    +0.000 C 
ATOM     19  C6  UNL     1     151.843 159.156 171.419  0.00  0.00    +0.000 C 
ATOM     20  C7  UNL     1     150.934 158.187 170.706  0.00  0.00    +0.000 C 
ATOM     21  C15 UNL     1     150.225 158.928 169.582  0.00  0.00    +0.000 C 
ATOM     22  C16 UNL     1     151.265 159.797 168.905  0.00  0.00    +0.000 C 
BRANCH  20  23
ATOM     23  C8  UNL     1     149.872 157.632 171.649  0.00  0.00    +0.000 C 
BRANCH  23  24
ATOM     24  O2  UNL     1     150.203 156.284 171.892  0.00  0.00    +0.000 OA
BRANCH  24  25
ATOM     25  C9  UNL     1     149.605 155.240 171.166  0.00  0.00    +0.000 A 
ATOM     26  C10 UNL     1     150.240 154.031 171.000  0.00  0.00    +0.000 A 
ATOM     27  C11 UNL     1     149.649 153.003 170.284  0.00  0.00    +0.000 A 
ATOM     28  C12 UNL     1     148.403 153.150 169.711  0.00  0.00    +0.000 A 
ATOM     29  C13 UNL     1     147.764 154.359 169.874  0.00  0.00    +0.000 A 
ATOM     30  C14 UNL     1     148.359 155.391 170.594  0.00  0.00    +0.000 A 
BRANCH  28  31
ATOM     31  N2  UNL     1     147.788 152.097 168.973  0.00  0.00    +0.000 N 
ATOM     32  O3  UNL     1     147.885 152.097 167.610  0.00  0.00    +0.000 OA
ATOM     33  O4  UNL     1     147.164 151.174 169.515  0.00  0.00    +0.000 OA
ENDBRANCH  28  31
ENDBRANCH  24  25
ENDBRANCH  23  24
ENDBRANCH  20  23
ENDBRANCH  14  17
ENDBRANCH   3  13
BRANCH   6  34
ATOM     34  C25 UNL     1     145.034 162.655 167.745  0.00  0.00    +0.000 C 
ATOM     35  C26 UNL     1     144.377 161.750 166.669  0.00  0.00    +0.000 C 
ATOM     36  C27 UNL     1     143.582 162.563 167.637  0.00  0.00    +0.000 C 
ENDBRANCH   6  34
BRANCH   8  37
ATOM     37  C24 UNL     1     144.628 167.076 165.676  0.00  0.00    +0.000 C 
ATOM     38  O6  UNL     1     143.478 166.867 165.223  0.00  0.00    +0.000 OA
BRANCH  37  39
ATOM     39  O7  UNL     1     145.098 168.377 165.688  0.00  0.00    +0.000 OA
ATOM     40  H20 UNL     1     144.436 169.140 165.742  0.00  0.00    +0.000 HD
ENDBRANCH  37  39
ENDBRANCH   8  37
BRANCH   4  41
ATOM     41  O8  UNL     1     147.411 161.788 168.157  0.00  0.00    +0.000 OA
ATOM     42  C28 UNL     1     147.673 160.549 167.533  0.00  0.00    +0.000 C 
ENDBRANCH   4  41
TORSDOF 10
ENDMDL
MODEL 3
REMARK VINA RESULT:      -7.1      2.710      3.725
REMARK  Name = ./3D_structures\o56_MMV1633965_3D.pdb
REMARK  11 active torsions:
REMARK  status: ('A' for Active; 'I' for Inactive)
REMARK    1  A    between atoms: C2_3  and  N1_4
REMARK    2  A    between atoms: C3_5  and  C4_7
REMARK    3  A    between atoms: C7_10  and  C8_11
REMARK    4  A    between atoms: C8_11  and  O2_12
REMARK    5  A    between atoms: O2_12  and  C9_13
REMARK    6  A    between atoms: C12_16  and  N2_17
REMARK    7  A    between atoms: C17_24  and  O8_39
REMARK    8  A    between atoms: N3_26  and  C25_36
REMARK    9  A    between atoms: C20_28  and  C24_33
REMARK   10  A    between atoms: C24_33  and  O7_35
REMARK   11  A    between atoms: O8_39  and  C28_40
REMARK                            x       y       z     vdW  Elec       q    Type
REMARK                         _______ _______ _______ _____ _____    ______ ____
ROOT
ATOM      1  F1  UNL     1     151.137 163.919 167.364  0.00  0.00    +0.000 F 
ATOM      2  C1  UNL     1     149.780 163.920 167.339  0.00  0.00    +0.000 A 
ATOM      3  C2  UNL     1     149.133 162.821 167.864  0.00  0.00    +0.000 A 
ATOM      4  C17 UNL     1     147.758 162.803 167.847  0.00  0.00    +0.000 A 
ATOM      5  C18 UNL     1     147.018 163.841 167.330  0.00  0.00    +0.000 A 
ATOM      6  N3  UNL     1     145.682 163.843 167.321  0.00  0.00    +0.000 N 
ATOM      7  C19 UNL     1     145.034 164.923 166.794  0.00  0.00    +0.000 A 
ATOM      8  C20 UNL     1     145.663 166.017 166.270  0.00  0.00    +0.000 A 
ATOM      9  C21 UNL     1     147.033 166.029 166.274  0.00  0.00    +0.000 A 
ATOM     10  C22 UNL     1     147.690 164.934 166.807  0.00  0.00    +0.000 A 
ATOM     11  C23 UNL     1     149.066 164.989 166.804  0.00  0.00    +0.000 A 
ATOM     12  O5  UNL     1     147.645 167.012 165.803  0.00  0.00    +0.000 OA
ENDROOT
BRANCH   3  13
ATOM     13  N1  UNL     1     149.878 161.759 168.417  0.00  0.00    +0.000 N 
ATOM     14  C3  UNL     1     150.487 161.783 169.689  0.00  0.00    +0.000 C 
ATOM     15  O1  UNL     1     150.341 162.846 170.367  0.00  0.00    +0.000 OA
ATOM     16  H1  UNL     1     150.002 160.863 167.850  0.00  0.00    +0.000 HD
BRANCH  14  17
ATOM     17  C4  UNL     1     151.238 160.618 170.160  0.00  0.00    +0.000 C 
ATOM     18  C5  UNL     1     151.069 159.400 169.316  0.00  0.00    +0.000 C 
ATOM     19  C6  UNL     1     152.278 158.513 169.521  0.00  0.00    +0.000 C 
ATOM     20  C7  UNL     1     153.535 159.140 168.972  0.00  0.00    +0.000 C 
ATOM     21  C15 UNL     1     153.355 160.651 168.960  0.00  0.00    +0.000 C 
ATOM     22  C16 UNL     1     152.704 161.026 170.274  0.00  0.00    +0.000 C 
BRANCH  20  23
ATOM     23  C8  UNL     1     153.799 158.684 167.541  0.00  0.00    +0.000 C 
BRANCH  23  24
ATOM     24  O2  UNL     1     154.496 157.462 167.622  0.00  0.00    +0.000 OA
BRANCH  24  25
ATOM     25  C9  UNL     1     155.813 157.336 167.150  0.00  0.00    +0.000 A 
ATOM     26  C10 UNL     1     156.890 157.647 167.949  0.00  0.00    +0.000 A 
ATOM     27  C11 UNL     1     158.189 157.523 167.481  0.00  0.00    +0.000 A 
ATOM     28  C12 UNL     1     158.453 157.084 166.200  0.00  0.00    +0.000 A 
ATOM     29  C13 UNL     1     157.377 156.772 165.398  0.00  0.00    +0.000 A 
ATOM     30  C14 UNL     1     156.074 156.897 165.869  0.00  0.00    +0.000 A 
BRANCH  28  31
ATOM     31  N2  UNL     1     159.785 156.954 165.713  0.00  0.00    +0.000 N 
ATOM     32  O3  UNL     1     160.773 157.717 166.267  0.00  0.00    +0.000 OA
ATOM     33  O4  UNL     1     160.093 156.173 164.801  0.00  0.00    +0.000 OA
ENDBRANCH  28  31
ENDBRANCH  24  25
ENDBRANCH  23  24
ENDBRANCH  20  23
ENDBRANCH  14  17
ENDBRANCH   3  13
BRANCH   6  34
ATOM     34  C25 UNL     1     144.869 162.759 167.869  0.00  0.00    +0.000 C 
ATOM     35  C26 UNL     1     144.160 161.902 166.786  0.00  0.00    +0.000 C 
ATOM     36  C27 UNL     1     143.418 162.801 167.720  0.00  0.00    +0.000 C 
ENDBRANCH   6  34
BRANCH   8  37
ATOM     37  C24 UNL     1     144.935 167.156 165.713  0.00  0.00    +0.000 C 
ATOM     38  O6  UNL     1     143.796 167.038 165.200  0.00  0.00    +0.000 OA
BRANCH  37  39
ATOM     39  O7  UNL     1     145.508 168.414 165.744  0.00  0.00    +0.000 OA
ATOM     40  H20 UNL     1     146.513 168.501 165.674  0.00  0.00    +0.000 HD
ENDBRANCH  37  39
ENDBRANCH   8  37
BRANCH   4  41
ATOM     41  O8  UNL     1     147.142 161.690 168.378  0.00  0.00    +0.000 OA
ATOM     42  C28 UNL     1     147.308 160.421 167.783  0.00  0.00    +0.000 C 
ENDBRANCH   4  41
TORSDOF 10
ENDMDL
MODEL 4
REMARK VINA RESULT:      -7.1      2.405      3.520
REMARK  Name = ./3D_structures\o56_MMV1633965_3D.pdb
REMARK  11 active torsions:
REMARK  status: ('A' for Active; 'I' for Inactive)
REMARK    1  A    between atoms: C2_3  and  N1_4
REMARK    2  A    between atoms: C3_5  and  C4_7
REMARK    3  A    between atoms: C7_10  and  C8_11
REMARK    4  A    between atoms: C8_11  and  O2_12
REMARK    5  A    between atoms: O2_12  and  C9_13
REMARK    6  A    between atoms: C12_16  and  N2_17
REMARK    7  A    between atoms: C17_24  and  O8_39
REMARK    8  A    between atoms: N3_26  and  C25_36
REMARK    9  A    between atoms: C20_28  and  C24_33
REMARK   10  A    between atoms: C24_33  and  O7_35
REMARK   11  A    between atoms: O8_39  and  C28_40
REMARK                            x       y       z     vdW  Elec       q    Type
REMARK                         _______ _______ _______ _____ _____    ______ ____
ROOT
ATOM      1  F1  UNL     1     151.054 163.607 167.355  0.00  0.00    +0.000 F 
ATOM      2  C1  UNL     1     149.699 163.691 167.326  0.00  0.00    +0.000 A 
ATOM      3  C2  UNL     1     148.985 162.632 167.846  0.00  0.00    +0.000 A 
ATOM      4  C17 UNL     1     147.611 162.698 167.826  0.00  0.00    +0.000 A 
ATOM      5  C18 UNL     1     146.938 163.780 167.310  0.00  0.00    +0.000 A 
ATOM      6  N3  UNL     1     145.604 163.865 167.298  0.00  0.00    +0.000 N 
ATOM      7  C19 UNL     1     145.025 164.983 166.773  0.00  0.00    +0.000 A 
ATOM      8  C20 UNL     1     145.721 166.038 166.254  0.00  0.00    +0.000 A 
ATOM      9  C21 UNL     1     147.088 165.966 166.261  0.00  0.00    +0.000 A 
ATOM     10  C22 UNL     1     147.676 164.832 166.793  0.00  0.00    +0.000 A 
ATOM     11  C23 UNL     1     149.054 164.803 166.793  0.00  0.00    +0.000 A 
ATOM     12  O5  UNL     1     147.760 166.912 165.794  0.00  0.00    +0.000 OA
ENDROOT
BRANCH   3  13
ATOM     13  N1  UNL     1     149.663 161.525 168.397  0.00  0.00    +0.000 N 
ATOM     14  C3  UNL     1     150.323 161.528 169.644  0.00  0.00    +0.000 C 
ATOM     15  O1  UNL     1     150.293 162.614 170.298  0.00  0.00    +0.000 OA
ATOM     16  H1  UNL     1     149.690 160.609 167.850  0.00  0.00    +0.000 HD
BRANCH  14  17
ATOM     17  C4  UNL     1     150.995 160.316 170.115  0.00  0.00    +0.000 C 
ATOM     18  C5  UNL     1     151.699 159.552 169.046  0.00  0.00    +0.000 C 
ATOM     19  C6  UNL     1     152.790 158.728 169.696  0.00  0.00    +0.000 C 
ATOM     20  C7  UNL     1     153.880 159.594 170.275  0.00  0.00    +0.000 C 
ATOM     21  C15 UNL     1     153.292 160.960 170.594  0.00  0.00    +0.000 C 
ATOM     22  C16 UNL     1     151.944 160.718 171.240  0.00  0.00    +0.000 C 
BRANCH  20  23
ATOM     23  C8  UNL     1     155.018 159.790 169.278  0.00  0.00    +0.000 C 
BRANCH  23  24
ATOM     24  O2  UNL     1     155.788 158.611 169.298  0.00  0.00    +0.000 OA
BRANCH  24  25
ATOM     25  C9  UNL     1     156.216 157.994 168.110  0.00  0.00    +0.000 A 
ATOM     26  C10 UNL     1     155.327 157.689 167.105  0.00  0.00    +0.000 A 
ATOM     27  C11 UNL     1     155.752 157.080 165.934  0.00  0.00    +0.000 A 
ATOM     28  C12 UNL     1     157.077 156.757 165.731  0.00  0.00    +0.000 A 
ATOM     29  C13 UNL     1     157.969 157.061 166.736  0.00  0.00    +0.000 A 
ATOM     30  C14 UNL     1     157.542 157.672 167.910  0.00  0.00    +0.000 A 
BRANCH  28  31
ATOM     31  N2  UNL     1     157.520 156.132 164.530  0.00  0.00    +0.000 N 
ATOM     32  O3  UNL     1     157.416 154.774 164.410  0.00  0.00    +0.000 OA
ATOM     33  O4  UNL     1     158.000 156.767 163.580  0.00  0.00    +0.000 OA
ENDBRANCH  28  31
ENDBRANCH  24  25
ENDBRANCH  23  24
ENDBRANCH  20  23
ENDBRANCH  14  17
ENDBRANCH   3  13
BRANCH   6  34
ATOM     34  C25 UNL     1     144.725 162.830 167.841  0.00  0.00    +0.000 C 
ATOM     35  C26 UNL     1     143.966 162.023 166.754  0.00  0.00    +0.000 C 
ATOM     36  C27 UNL     1     143.280 162.962 167.691  0.00  0.00    +0.000 C 
ENDBRANCH   6  34
BRANCH   8  37
ATOM     37  C24 UNL     1     145.064 167.222 165.699  0.00  0.00    +0.000 C 
ATOM     38  O6  UNL     1     143.939 167.168 165.148  0.00  0.00    +0.000 OA
BRANCH  37  39
ATOM     39  O7  UNL     1     145.694 168.451 165.776  0.00  0.00    +0.000 OA
ATOM     40  H20 UNL     1     145.254 169.258 165.355  0.00  0.00    +0.000 HD
ENDBRANCH  37  39
ENDBRANCH   8  37
BRANCH   4  41
ATOM     41  O8  UNL     1     146.928 161.623 168.352  0.00  0.00    +0.000 OA
ATOM     42  C28 UNL     1     146.967 160.362 167.718  0.00  0.00    +0.000 C 
ENDBRANCH   4  41
TORSDOF 10
ENDMDL
MODEL 5
REMARK VINA RESULT:      -6.9      2.912      4.058
REMARK  Name = ./3D_structures\o56_MMV1633965_3D.pdb
REMARK  11 active torsions:
REMARK  status: ('A' for Active; 'I' for Inactive)
REMARK    1  A    between atoms: C2_3  and  N1_4
REMARK    2  A    between atoms: C3_5  and  C4_7
REMARK    3  A    between atoms: C7_10  and  C8_11
REMARK    4  A    between atoms: C8_11  and  O2_12
REMARK    5  A    between atoms: O2_12  and  C9_13
REMARK    6  A    between atoms: C12_16  and  N2_17
REMARK    7  A    between atoms: C17_24  and  O8_39
REMARK    8  A    between atoms: N3_26  and  C25_36
REMARK    9  A    between atoms: C20_28  and  C24_33
REMARK   10  A    between atoms: C24_33  and  O7_35
REMARK   11  A    between atoms: O8_39  and  C28_40
REMARK                            x       y       z     vdW  Elec       q    Type
REMARK                         _______ _______ _______ _____ _____    ______ ____
ROOT
ATOM      1  F1  UNL     1     150.973 163.985 168.077  0.00  0.00    +0.000 F 
ATOM      2  C1  UNL     1     149.630 163.967 167.881  0.00  0.00    +0.000 A 
ATOM      3  C2  UNL     1     148.937 162.860 168.323  0.00  0.00    +0.000 A 
ATOM      4  C17 UNL     1     147.576 162.822 168.134  0.00  0.00    +0.000 A 
ATOM      5  C18 UNL     1     146.893 163.850 167.526  0.00  0.00    +0.000 A 
ATOM      6  N3  UNL     1     145.569 163.834 167.349  0.00  0.00    +0.000 N 
ATOM      7  C19 UNL     1     144.978 164.904 166.743  0.00  0.00    +0.000 A 
ATOM      8  C20 UNL     1     145.652 166.007 166.300  0.00  0.00    +0.000 A 
ATOM      9  C21 UNL     1     147.010 166.038 166.476  0.00  0.00    +0.000 A 
ATOM     10  C22 UNL     1     147.610 164.952 167.090  0.00  0.00    +0.000 A 
ATOM     11  C23 UNL     1     148.975 165.026 167.260  0.00  0.00    +0.000 A 
ATOM     12  O5  UNL     1     147.663 167.029 166.084  0.00  0.00    +0.000 OA
ENDROOT
BRANCH   3  13
ATOM     13  N1  UNL     1     149.622 161.807 168.967  0.00  0.00    +0.000 N 
ATOM     14  C3  UNL     1     150.495 160.907 168.321  0.00  0.00    +0.000 C 
ATOM     15  O1  UNL     1     150.661 161.072 167.075  0.00  0.00    +0.000 OA
ATOM     16  H1  UNL     1     149.485 161.665 170.016  0.00  0.00    +0.000 HD
BRANCH  14  17
ATOM     17  C4  UNL     1     151.152 159.850 169.093  0.00  0.00    +0.000 C 
ATOM     18  C5  UNL     1     152.583 159.631 168.735  0.00  0.00    +0.000 C 
ATOM     19  C6  UNL     1     153.276 159.002 169.925  0.00  0.00    +0.000 C 
ATOM     20  C7  UNL     1     153.356 159.949 171.096  0.00  0.00    +0.000 C 
ATOM     21  C15 UNL     1     152.223 160.958 170.978  0.00  0.00    +0.000 C 
ATOM     22  C16 UNL     1     150.986 160.184 170.573  0.00  0.00    +0.000 C 
BRANCH  20  23
ATOM     23  C8  UNL     1     154.674 160.716 171.096  0.00  0.00    +0.000 C 
BRANCH  23  24
ATOM     24  O2  UNL     1     155.690 159.783 171.382  0.00  0.00    +0.000 OA
BRANCH  24  25
ATOM     25  C9  UNL     1     156.825 159.662 170.563  0.00  0.00    +0.000 A 
ATOM     26  C10 UNL     1     157.553 158.494 170.520  0.00  0.00    +0.000 A 
ATOM     27  C11 UNL     1     158.672 158.376 169.711  0.00  0.00    +0.000 A 
ATOM     28  C12 UNL     1     159.101 159.422 168.920  0.00  0.00    +0.000 A 
ATOM     29  C13 UNL     1     158.375 160.593 168.961  0.00  0.00    +0.000 A 
ATOM     30  C14 UNL     1     157.252 160.709 169.773  0.00  0.00    +0.000 A 
BRANCH  28  31
ATOM     31  N2  UNL     1     160.250 159.308 168.086  0.00  0.00    +0.000 N 
ATOM     32  O3  UNL     1     160.579 158.086 167.570  0.00  0.00    +0.000 OA
ATOM     33  O4  UNL     1     160.973 160.275 167.804  0.00  0.00    +0.000 OA
ENDBRANCH  28  31
ENDBRANCH  24  25
ENDBRANCH  23  24
ENDBRANCH  20  23
ENDBRANCH  14  17
ENDBRANCH   3  13
BRANCH   6  34
ATOM     34  C25 UNL     1     144.708 162.738 167.792  0.00  0.00    +0.000 C 
ATOM     35  C26 UNL     1     144.023 161.972 166.629  0.00  0.00    +0.000 C 
ATOM     36  C27 UNL     1     143.266 162.829 167.590  0.00  0.00    +0.000 C 
ENDBRANCH   6  34
BRANCH   8  37
ATOM     37  C24 UNL     1     144.984 167.136 165.654  0.00  0.00    +0.000 C 
ATOM     38  O6  UNL     1     143.885 167.015 165.062  0.00  0.00    +0.000 OA
BRANCH  37  39
ATOM     39  O7  UNL     1     145.571 168.388 165.688  0.00  0.00    +0.000 OA
ATOM     40  H20 UNL     1     146.579 168.459 165.747  0.00  0.00    +0.000 HD
ENDBRANCH  37  39
ENDBRANCH   8  37
BRANCH   4  41
ATOM     41  O8  UNL     1     146.914 161.701 168.585  0.00  0.00    +0.000 OA
ATOM     42  C28 UNL     1     146.997 160.481 167.879  0.00  0.00    +0.000 C 
ENDBRANCH   4  41
TORSDOF 10
ENDMDL
MODEL 6
REMARK VINA RESULT:      -6.8      4.750     10.936
REMARK  Name = ./3D_structures\o56_MMV1633965_3D.pdb
REMARK  11 active torsions:
REMARK  status: ('A' for Active; 'I' for Inactive)
REMARK    1  A    between atoms: C2_3  and  N1_4
REMARK    2  A    between atoms: C3_5  and  C4_7
REMARK    3  A    between atoms: C7_10  and  C8_11
REMARK    4  A    between atoms: C8_11  and  O2_12
REMARK    5  A    between atoms: O2_12  and  C9_13
REMARK    6  A    between atoms: C12_16  and  N2_17
REMARK    7  A    between atoms: C17_24  and  O8_39
REMARK    8  A    between atoms: N3_26  and  C25_36
REMARK    9  A    between atoms: C20_28  and  C24_33
REMARK   10  A    between atoms: C24_33  and  O7_35
REMARK   11  A    between atoms: O8_39  and  C28_40
REMARK                            x       y       z     vdW  Elec       q    Type
REMARK                         _______ _______ _______ _____ _____    ______ ____
ROOT
ATOM      1  F1  UNL     1     154.425 158.515 169.531  0.00  0.00    +0.000 F 
ATOM      2  C1  UNL     1     155.610 158.330 168.897  0.00  0.00    +0.000 A 
ATOM      3  C2  UNL     1     156.719 158.958 169.423  0.00  0.00    +0.000 A 
ATOM      4  C17 UNL     1     157.930 158.783 168.795  0.00  0.00    +0.000 A 
ATOM      5  C18 UNL     1     158.064 158.003 167.670  0.00  0.00    +0.000 A 
ATOM      6  N3  UNL     1     159.236 157.811 167.058  0.00  0.00    +0.000 N 
ATOM      7  C19 UNL     1     159.273 157.012 165.953  0.00  0.00    +0.000 A 
ATOM      8  C20 UNL     1     158.182 156.384 165.420  0.00  0.00    +0.000 A 
ATOM      9  C21 UNL     1     156.974 156.571 166.038  0.00  0.00    +0.000 A 
ATOM     10  C22 UNL     1     156.937 157.381 167.159  0.00  0.00    +0.000 A 
ATOM     11  C23 UNL     1     155.706 157.534 167.759  0.00  0.00    +0.000 A 
ATOM     12  O5  UNL     1     155.953 156.013 165.581  0.00  0.00    +0.000 OA
ENDROOT
BRANCH   3  13
ATOM     13  N1  UNL     1     156.599 159.745 170.588  0.00  0.00    +0.000 N 
ATOM     14  C3  UNL     1     156.631 159.238 171.904  0.00  0.00    +0.000 C 
ATOM     15  O1  UNL     1     156.778 157.984 172.025  0.00  0.00    +0.000 OA
ATOM     16  H1  UNL     1     156.476 160.801 170.491  0.00  0.00    +0.000 HD
BRANCH  14  17
ATOM     17  C4  UNL     1     156.497 160.152 173.040  0.00  0.00    +0.000 C 
ATOM     18  C5  UNL     1     156.703 161.588 172.697  0.00  0.00    +0.000 C 
ATOM     19  C6  UNL     1     155.984 162.428 173.731  0.00  0.00    +0.000 C 
ATOM     20  C7  UNL     1     154.487 162.264 173.647  0.00  0.00    +0.000 C 
ATOM     21  C15 UNL     1     154.184 160.907 173.030  0.00  0.00    +0.000 C 
ATOM     22  C16 UNL     1     155.129 159.912 173.670  0.00  0.00    +0.000 C 
BRANCH  20  23
ATOM     23  C8  UNL     1     153.864 163.337 172.760  0.00  0.00    +0.000 C 
BRANCH  23  24
ATOM     24  O2  UNL     1     153.074 162.671 171.803  0.00  0.00    +0.000 OA
BRANCH  24  25
ATOM     25  C9  UNL     1     151.906 163.253 171.282  0.00  0.00    +0.000 A 
ATOM     26  C10 UNL     1     151.419 164.441 171.778  0.00  0.00    +0.000 A 
ATOM     27  C11 UNL     1     150.267 165.014 171.262  0.00  0.00    +0.000 A 
ATOM     28  C12 UNL     1     149.565 164.418 170.235  0.00  0.00    +0.000 A 
ATOM     29  C13 UNL     1     150.050 163.229 169.737  0.00  0.00    +0.000 A 
ATOM     30  C14 UNL     1     151.207 162.655 170.255  0.00  0.00    +0.000 A 
BRANCH  28  31
ATOM     31  N2  UNL     1     148.381 165.001 169.700  0.00  0.00    +0.000 N 
ATOM     32  O3  UNL     1     147.319 165.228 170.529  0.00  0.00    +0.000 OA
ATOM     33  O4  UNL     1     148.267 165.315 168.506  0.00  0.00    +0.000 OA
ENDBRANCH  28  31
ENDBRANCH  24  25
ENDBRANCH  23  24
ENDBRANCH  20  23
ENDBRANCH  14  17
ENDBRANCH   3  13
BRANCH   6  34
ATOM     34  C25 UNL     1     160.494 158.393 167.524  0.00  0.00    +0.000 C 
ATOM     35  C26 UNL     1     161.142 159.373 166.509  0.00  0.00    +0.000 C 
ATOM     36  C27 UNL     1     161.741 158.048 166.847  0.00  0.00    +0.000 C 
ENDBRANCH   6  34
BRANCH   8  37
ATOM     37  C24 UNL     1     158.261 155.535 164.232  0.00  0.00    +0.000 C 
ATOM     38  O6  UNL     1     158.798 154.402 164.252  0.00  0.00    +0.000 OA
BRANCH  37  39
ATOM     39  O7  UNL     1     157.728 155.982 163.037  0.00  0.00    +0.000 OA
ATOM     40  H20 UNL     1     157.135 156.802 163.036  0.00  0.00    +0.000 HD
ENDBRANCH  37  39
ENDBRANCH   8  37
BRANCH   4  41
ATOM     41  O8  UNL     1     159.017 159.426 169.345  0.00  0.00    +0.000 OA
ATOM     42  C28 UNL     1     159.145 160.830 169.259  0.00  0.00    +0.000 C 
ENDBRANCH   4  41
TORSDOF 10
ENDMDL
MODEL 7
REMARK VINA RESULT:      -6.8      5.292     10.679
REMARK  Name = ./3D_structures\o56_MMV1633965_3D.pdb
REMARK  11 active torsions:
REMARK  status: ('A' for Active; 'I' for Inactive)
REMARK    1  A    between atoms: C2_3  and  N1_4
REMARK    2  A    between atoms: C3_5  and  C4_7
REMARK    3  A    between atoms: C7_10  and  C8_11
REMARK    4  A    between atoms: C8_11  and  O2_12
REMARK    5  A    between atoms: O2_12  and  C9_13
REMARK    6  A    between atoms: C12_16  and  N2_17
REMARK    7  A    between atoms: C17_24  and  O8_39
REMARK    8  A    between atoms: N3_26  and  C25_36
REMARK    9  A    between atoms: C20_28  and  C24_33
REMARK   10  A    between atoms: C24_33  and  O7_35
REMARK   11  A    between atoms: O8_39  and  C28_40
REMARK                            x       y       z     vdW  Elec       q    Type
REMARK                         _______ _______ _______ _____ _____    ______ ____
ROOT
ATOM      1  F1  UNL     1     154.410 158.530 169.441  0.00  0.00    +0.000 F 
ATOM      2  C1  UNL     1     155.618 158.375 168.844  0.00  0.00    +0.000 A 
ATOM      3  C2  UNL     1     156.684 159.072 169.372  0.00  0.00    +0.000 A 
ATOM      4  C17 UNL     1     157.917 158.929 168.781  0.00  0.00    +0.000 A 
ATOM      5  C18 UNL     1     158.115 158.115 167.690  0.00  0.00    +0.000 A 
ATOM      6  N3  UNL     1     159.310 157.955 167.114  0.00  0.00    +0.000 N 
ATOM      7  C19 UNL     1     159.411 157.118 166.040  0.00  0.00    +0.000 A 
ATOM      8  C20 UNL     1     158.363 156.423 165.506  0.00  0.00    +0.000 A 
ATOM      9  C21 UNL     1     157.133 156.577 166.087  0.00  0.00    +0.000 A 
ATOM     10  C22 UNL     1     157.030 157.425 167.175  0.00  0.00    +0.000 A 
ATOM     11  C23 UNL     1     155.778 157.543 167.739  0.00  0.00    +0.000 A 
ATOM     12  O5  UNL     1     156.149 155.957 165.626  0.00  0.00    +0.000 OA
ENDROOT
BRANCH   3  13
ATOM     13  N1  UNL     1     156.500 159.894 170.504  0.00  0.00    +0.000 N 
ATOM     14  C3  UNL     1     156.573 159.447 171.840  0.00  0.00    +0.000 C 
ATOM     15  O1  UNL     1     156.823 158.216 172.013  0.00  0.00    +0.000 OA
ATOM     16  H1  UNL     1     156.290 160.931 170.363  0.00  0.00    +0.000 HD
BRANCH  14  17
ATOM     17  C4  UNL     1     156.364 160.394 172.937  0.00  0.00    +0.000 C 
ATOM     18  C5  UNL     1     155.964 161.761 172.497  0.00  0.00    +0.000 C 
ATOM     19  C6  UNL     1     155.227 162.428 173.639  0.00  0.00    +0.000 C 
ATOM     20  C7  UNL     1     153.907 161.758 173.925  0.00  0.00    +0.000 C 
ATOM     21  C15 UNL     1     153.987 160.313 173.454  0.00  0.00    +0.000 C 
ATOM     22  C16 UNL     1     155.338 159.784 173.888  0.00  0.00    +0.000 C 
BRANCH  20  23
ATOM     23  C8  UNL     1     152.769 162.438 173.172  0.00  0.00    +0.000 C 
BRANCH  23  24
ATOM     24  O2  UNL     1     152.051 161.424 172.509  0.00  0.00    +0.000 OA
BRANCH  24  25
ATOM     25  C9  UNL     1     152.144 161.248 171.118  0.00  0.00    +0.000 A 
ATOM     26  C10 UNL     1     151.396 160.294 170.467  0.00  0.00    +0.000 A 
ATOM     27  C11 UNL     1     151.491 160.122 169.096  0.00  0.00    +0.000 A 
ATOM     28  C12 UNL     1     152.335 160.899 168.330  0.00  0.00    +0.000 A 
ATOM     29  C13 UNL     1     153.086 161.855 168.978  0.00  0.00    +0.000 A 
ATOM     30  C14 UNL     1     152.990 162.026 170.356  0.00  0.00    +0.000 A 
BRANCH  28  31
ATOM     31  N2  UNL     1     152.437 160.728 166.919  0.00  0.00    +0.000 N 
ATOM     32  O3  UNL     1     151.638 161.474 166.100  0.00  0.00    +0.000 OA
ATOM     33  O4  UNL     1     153.225 159.928 166.395  0.00  0.00    +0.000 OA
ENDBRANCH  28  31
ENDBRANCH  24  25
ENDBRANCH  23  24
ENDBRANCH  20  23
ENDBRANCH  14  17
ENDBRANCH   3  13
BRANCH   6  34
ATOM     34  C25 UNL     1     160.529 158.609 167.587  0.00  0.00    +0.000 C 
ATOM     35  C26 UNL     1     161.219 159.495 166.515  0.00  0.00    +0.000 C 
ATOM     36  C27 UNL     1     161.819 158.225 167.023  0.00  0.00    +0.000 C 
ENDBRANCH   6  34
BRANCH   8  37
ATOM     37  C24 UNL     1     158.510 155.535 164.353  0.00  0.00    +0.000 C 
ATOM     38  O6  UNL     1     159.216 154.499 164.389  0.00  0.00    +0.000 OA
BRANCH  37  39
ATOM     39  O7  UNL     1     157.854 155.835 163.173  0.00  0.00    +0.000 OA
ATOM     40  H20 UNL     1     157.892 156.779 162.813  0.00  0.00    +0.000 HD
ENDBRANCH  37  39
ENDBRANCH   8  37
BRANCH   4  41
ATOM     41  O8  UNL     1     158.960 159.640 169.333  0.00  0.00    +0.000 OA
ATOM     42  C28 UNL     1     159.053 161.038 169.158  0.00  0.00    +0.000 C 
ENDBRANCH   4  41
TORSDOF 10
ENDMDL
MODEL 8
REMARK VINA RESULT:      -6.7      4.530     10.791
REMARK  Name = ./3D_structures\o56_MMV1633965_3D.pdb
REMARK  11 active torsions:
REMARK  status: ('A' for Active; 'I' for Inactive)
REMARK    1  A    between atoms: C2_3  and  N1_4
REMARK    2  A    between atoms: C3_5  and  C4_7
REMARK    3  A    between atoms: C7_10  and  C8_11
REMARK    4  A    between atoms: C8_11  and  O2_12
REMARK    5  A    between atoms: O2_12  and  C9_13
REMARK    6  A    between atoms: C12_16  and  N2_17
REMARK    7  A    between atoms: C17_24  and  O8_39
REMARK    8  A    between atoms: N3_26  and  C25_36
REMARK    9  A    between atoms: C20_28  and  C24_33
REMARK   10  A    between atoms: C24_33  and  O7_35
REMARK   11  A    between atoms: O8_39  and  C28_40
REMARK                            x       y       z     vdW  Elec       q    Type
REMARK                         _______ _______ _______ _____ _____    ______ ____
ROOT
ATOM      1  F1  UNL     1     154.369 158.594 169.485  0.00  0.00    +0.000 F 
ATOM      2  C1  UNL     1     155.560 158.394 168.865  0.00  0.00    +0.000 A 
ATOM      3  C2  UNL     1     156.667 159.023 169.393  0.00  0.00    +0.000 A 
ATOM      4  C17 UNL     1     157.883 158.833 168.779  0.00  0.00    +0.000 A 
ATOM      5  C18 UNL     1     158.023 158.038 167.666  0.00  0.00    +0.000 A 
ATOM      6  N3  UNL     1     159.201 157.832 167.068  0.00  0.00    +0.000 N 
ATOM      7  C19 UNL     1     159.244 157.018 165.973  0.00  0.00    +0.000 A 
ATOM      8  C20 UNL     1     158.155 156.389 165.439  0.00  0.00    +0.000 A 
ATOM      9  C21 UNL     1     156.942 156.590 166.042  0.00  0.00    +0.000 A 
ATOM     10  C22 UNL     1     156.898 157.416 167.152  0.00  0.00    +0.000 A 
ATOM     11  C23 UNL     1     155.662 157.582 167.738  0.00  0.00    +0.000 A 
ATOM     12  O5  UNL     1     155.922 156.032 165.583  0.00  0.00    +0.000 OA
ENDROOT
BRANCH   3  13
ATOM     13  N1  UNL     1     156.541 159.826 170.547  0.00  0.00    +0.000 N 
ATOM     14  C3  UNL     1     156.623 159.345 171.870  0.00  0.00    +0.000 C 
ATOM     15  O1  UNL     1     156.825 158.100 172.010  0.00  0.00    +0.000 OA
ATOM     16  H1  UNL     1     156.371 160.873 170.434  0.00  0.00    +0.000 HD
BRANCH  14  17
ATOM     17  C4  UNL     1     156.477 160.273 172.993  0.00  0.00    +0.000 C 
ATOM     18  C5  UNL     1     156.303 161.698 172.589  0.00  0.00    +0.000 C 
ATOM     19  C6  UNL     1     155.594 162.424 173.712  0.00  0.00    +0.000 C 
ATOM     20  C7  UNL     1     154.176 161.941 173.886  0.00  0.00    +0.000 C 
ATOM     21  C15 UNL     1     154.083 160.517 173.359  0.00  0.00    +0.000 C 
ATOM     22  C16 UNL     1     155.313 159.785 173.851  0.00  0.00    +0.000 C 
BRANCH  20  23
ATOM     23  C8  UNL     1     153.198 162.803 173.096  0.00  0.00    +0.000 C 
BRANCH  23  24
ATOM     24  O2  UNL     1     153.279 162.388 171.752  0.00  0.00    +0.000 OA
BRANCH  24  25
ATOM     25  C9  UNL     1     152.133 162.293 170.944  0.00  0.00    +0.000 A 
ATOM     26  C10 UNL     1     151.717 161.084 170.436  0.00  0.00    +0.000 A 
ATOM     27  C11 UNL     1     150.587 160.992 169.639  0.00  0.00    +0.000 A 
ATOM     28  C12 UNL     1     149.837 162.106 169.324  0.00  0.00    +0.000 A 
ATOM     29  C13 UNL     1     150.251 163.318 169.830  0.00  0.00    +0.000 A 
ATOM     30  C14 UNL     1     151.386 163.409 170.630  0.00  0.00    +0.000 A 
BRANCH  28  31
ATOM     31  N2  UNL     1     148.674 162.019 168.505  0.00  0.00    +0.000 N 
ATOM     32  O3  UNL     1     148.789 161.516 167.240  0.00  0.00    +0.000 OA
ATOM     33  O4  UNL     1     147.554 162.382 168.890  0.00  0.00    +0.000 OA
ENDBRANCH  28  31
ENDBRANCH  24  25
ENDBRANCH  23  24
ENDBRANCH  20  23
ENDBRANCH  14  17
ENDBRANCH   3  13
BRANCH   6  34
ATOM     34  C25 UNL     1     160.457 158.413 167.537  0.00  0.00    +0.000 C 
ATOM     35  C26 UNL     1     161.138 159.348 166.502  0.00  0.00    +0.000 C 
ATOM     36  C27 UNL     1     161.712 158.027 166.899  0.00  0.00    +0.000 C 
ENDBRANCH   6  34
BRANCH   8  37
ATOM     37  C24 UNL     1     158.240 155.524 164.263  0.00  0.00    +0.000 C 
ATOM     38  O6  UNL     1     158.666 155.935 163.157  0.00  0.00    +0.000 OA
BRANCH  37  39
ATOM     39  O7  UNL     1     157.839 154.204 164.356  0.00  0.00    +0.000 OA
ATOM     40  H20 UNL     1     158.104 153.664 165.170  0.00  0.00    +0.000 HD
ENDBRANCH  37  39
ENDBRANCH   8  37
BRANCH   4  41
ATOM     41  O8  UNL     1     158.968 159.478 169.331  0.00  0.00    +0.000 OA
ATOM     42  C28 UNL     1     159.122 160.875 169.198  0.00  0.00    +0.000 C 
ENDBRANCH   4  41
TORSDOF 10
ENDMDL
MODEL 9
REMARK VINA RESULT:      -6.6      3.772      5.276
REMARK  Name = ./3D_structures\o56_MMV1633965_3D.pdb
REMARK  11 active torsions:
REMARK  status: ('A' for Active; 'I' for Inactive)
REMARK    1  A    between atoms: C2_3  and  N1_4
REMARK    2  A    between atoms: C3_5  and  C4_7
REMARK    3  A    between atoms: C7_10  and  C8_11
REMARK    4  A    between atoms: C8_11  and  O2_12
REMARK    5  A    between atoms: O2_12  and  C9_13
REMARK    6  A    between atoms: C12_16  and  N2_17
REMARK    7  A    between atoms: C17_24  and  O8_39
REMARK    8  A    between atoms: N3_26  and  C25_36
REMARK    9  A    between atoms: C20_28  and  C24_33
REMARK   10  A    between atoms: C24_33  and  O7_35
REMARK   11  A    between atoms: O8_39  and  C28_40
REMARK                            x       y       z     vdW  Elec       q    Type
REMARK                         _______ _______ _______ _____ _____    ______ ____
ROOT
ATOM      1  F1  UNL     1     151.452 159.415 168.976  0.00  0.00    +0.000 F 
ATOM      2  C1  UNL     1     150.451 160.325 168.872  0.00  0.00    +0.000 A 
ATOM      3  C2  UNL     1     150.617 161.531 169.520  0.00  0.00    +0.000 A 
ATOM      4  C17 UNL     1     149.614 162.467 169.426  0.00  0.00    +0.000 A 
ATOM      5  C18 UNL     1     148.463 162.237 168.710  0.00  0.00    +0.000 A 
ATOM      6  N3  UNL     1     147.486 163.143 168.598  0.00  0.00    +0.000 N 
ATOM      7  C19 UNL     1     146.385 162.827 167.857  0.00  0.00    +0.000 A 
ATOM      8  C20 UNL     1     146.207 161.637 167.212  0.00  0.00    +0.000 A 
ATOM      9  C21 UNL     1     147.200 160.700 167.316  0.00  0.00    +0.000 A 
ATOM     10  C22 UNL     1     148.317 161.019 168.068  0.00  0.00    +0.000 A 
ATOM     11  C23 UNL     1     149.299 160.055 168.138  0.00  0.00    +0.000 A 
ATOM     12  O5  UNL     1     147.074 159.597 166.739  0.00  0.00    +0.000 OA
ENDROOT
BRANCH   3  13
ATOM     13  N1  UNL     1     151.802 161.789 170.242  0.00  0.00    +0.000 N 
ATOM     14  C3  UNL     1     152.117 161.219 171.493  0.00  0.00    +0.000 C 
ATOM     15  O1  UNL     1     151.261 160.423 171.986  0.00  0.00    +0.000 OA
ATOM     16  H1  UNL     1     152.525 162.458 169.830  0.00  0.00    +0.000 HD
BRANCH  14  17
ATOM     17  C4  UNL     1     153.379 161.561 172.151  0.00  0.00    +0.000 C 
ATOM     18  C5  UNL     1     153.801 160.593 173.204  0.00  0.00    +0.000 C 
ATOM     19  C6  UNL     1     155.303 160.698 173.367  0.00  0.00    +0.000 C 
ATOM     20  C7  UNL     1     156.037 160.215 172.142  0.00  0.00    +0.000 C 
ATOM     21  C15 UNL     1     155.118 160.364 170.939  0.00  0.00    +0.000 C 
ATOM     22  C16 UNL     1     154.442 161.713 171.067  0.00  0.00    +0.000 C 
BRANCH  20  23
ATOM     23  C8  UNL     1     156.413 158.742 172.270  0.00  0.00    +0.000 C 
BRANCH  23  24
ATOM     24  O2  UNL     1     157.571 158.546 171.491  0.00  0.00    +0.000 OA
BRANCH  24  25
ATOM     25  C9  UNL     1     157.494 158.097 170.162  0.00  0.00    +0.000 A 
ATOM     26  C10 UNL     1     156.427 157.346 169.724  0.00  0.00    +0.000 A 
ATOM     27  C11 UNL     1     156.352 156.904 168.413  0.00  0.00    +0.000 A 
ATOM     28  C12 UNL     1     157.342 157.198 167.497  0.00  0.00    +0.000 A 
ATOM     29  C13 UNL     1     158.412 157.949 167.933  0.00  0.00    +0.000 A 
ATOM     30  C14 UNL     1     158.485 158.392 169.250  0.00  0.00    +0.000 A 
BRANCH  28  31
ATOM     31  N2  UNL     1     157.272 156.747 166.148  0.00  0.00    +0.000 N 
ATOM     32  O3  UNL     1     158.281 157.073 165.286  0.00  0.00    +0.000 OA
ATOM     33  O4  UNL     1     156.331 156.066 165.715  0.00  0.00    +0.000 OA
ENDBRANCH  28  31
ENDBRANCH  24  25
ENDBRANCH  23  24
ENDBRANCH  20  23
ENDBRANCH  14  17
ENDBRANCH   3  13
BRANCH   6  34
ATOM     34  C25 UNL     1     147.543 164.470 169.208  0.00  0.00    +0.000 C 
ATOM     35  C26 UNL     1     146.580 164.645 170.413  0.00  0.00    +0.000 C 
ATOM     36  C27 UNL     1     146.387 165.356 169.113  0.00  0.00    +0.000 C 
ENDBRANCH   6  34
BRANCH   8  37
ATOM     37  C24 UNL     1     145.010 161.334 166.426  0.00  0.00    +0.000 C 
ATOM     38  O6  UNL     1     143.903 161.086 166.960  0.00  0.00    +0.000 OA
BRANCH  37  39
ATOM     39  O7  UNL     1     145.087 161.317 165.045  0.00  0.00    +0.000 OA
ATOM     40  H20 UNL     1     145.718 161.954 164.577  0.00  0.00    +0.000 HD
ENDBRANCH  37  39
ENDBRANCH   8  37
BRANCH   4  41
ATOM     41  O8  UNL     1     149.811 163.661 170.087  0.00  0.00    +0.000 OA
ATOM     42  C28 UNL     1     150.725 164.617 169.593  0.00  0.00    +0.000 C 
ENDBRANCH   4  41
TORSDOF 10
ENDMDL
