MODEL 1
REMARK VINA RESULT:      -6.7      0.000      0.000
REMARK  Name = ./3D_structures\o57_MMV093250_3D.pdb
REMARK  4 active torsions:
REMARK  status: ('A' for Active; 'I' for Inactive)
REMARK    1  A    between atoms: C1_1  and  C2_2
REMARK    2  A    between atoms: C5_6  and  C6_7
REMARK    3  A    between atoms: C11_15  and  C19_25
REMARK    4  A    between atoms: N4_17  and  C13_18
REMARK                            x       y       z     vdW  Elec       q    Type
REMARK                         _______ _______ _______ _____ _____    ______ ____
ROOT
ATOM      1  C1  UNL     1     157.532 163.141 171.356  0.00  0.00    +0.000 C 
ATOM      2  C2  UNL     1     156.264 162.353 171.547  0.00  0.00    +0.000 C 
ATOM      3  C3  UNL     1     155.841 161.668 170.236  0.00  0.00    +0.000 C 
ATOM      4  N1  UNL     1     156.140 160.251 170.341  0.00  0.00    +0.000 N 
ATOM      5  C4  UNL     1     155.547 159.535 171.452  0.00  0.00    +0.000 C 
ATOM      6  C5  UNL     1     155.437 160.512 172.634  0.00  0.00    +0.000 C 
ATOM      7  C6  UNL     1     155.495 159.732 173.925  0.00  0.00    +0.000 C 
ATOM      8  O1  UNL     1     156.501 161.392 172.528  0.00  0.00    +0.000 OA
ATOM      9  C7  UNL     1     157.002 159.630 169.440  0.00  0.00    +0.000 C 
ATOM     10  N2  UNL     1     158.363 159.802 169.554  0.00  0.00    +0.000 NA
ATOM     11  C8  UNL     1     159.221 159.232 168.709  0.00  0.00    +0.000 C 
ATOM     12  N3  UNL     1     158.812 158.457 167.696  0.00  0.00    +0.000 NA
ATOM     13  C9  UNL     1     157.508 158.245 167.524  0.00  0.00    +0.000 A 
ATOM     14  C10 UNL     1     156.593 158.825 168.387  0.00  0.00    +0.000 A 
ATOM     15  C11 UNL     1     155.369 158.390 167.944  0.00  0.00    +0.000 A 
ATOM     16  C12 UNL     1     155.598 157.565 166.833  0.00  0.00    +0.000 A 
ATOM     17  N4  UNL     1     156.910 157.487 166.588  0.00  0.00    +0.000 N 
ENDROOT
BRANCH  17  18
ATOM     18  C13 UNL     1     157.530 156.738 165.534  0.00  0.00    +0.000 A 
ATOM     19  C14 UNL     1     157.991 155.447 165.685  0.00  0.00    +0.000 A 
ATOM     20  C15 UNL     1     158.587 154.763 164.626  0.00  0.00    +0.000 A 
ATOM     21  C16 UNL     1     158.736 155.353 163.390  0.00  0.00    +0.000 A 
ATOM     22  F1  UNL     1     159.321 154.675 162.359  0.00  0.00    +0.000 F 
ATOM     23  C17 UNL     1     158.274 156.644 163.242  0.00  0.00    +0.000 A 
ATOM     24  C18 UNL     1     157.683 157.323 164.295  0.00  0.00    +0.000 A 
ENDBRANCH  17  18
BRANCH  15  25
ATOM     25  C19 UNL     1     154.055 158.708 168.452  0.00  0.00    +0.000 A 
ATOM     26  C20 UNL     1     153.374 157.836 169.310  0.00  0.00    +0.000 A 
ATOM     27  C21 UNL     1     152.116 158.091 169.762  0.00  0.00    +0.000 A 
ATOM     28  C22 UNL     1     151.475 159.242 169.375  0.00  0.00    +0.000 A 
ATOM     29  C23 UNL     1     152.100 160.118 168.541  0.00  0.00    +0.000 A 
ATOM     30  C24 UNL     1     153.386 159.838 168.090  0.00  0.00    +0.000 A 
ENDBRANCH  15  25
TORSDOF 2
ENDMDL
MODEL 2
REMARK VINA RESULT:      -6.6      1.608      2.269
REMARK  Name = ./3D_structures\o57_MMV093250_3D.pdb
REMARK  4 active torsions:
REMARK  status: ('A' for Active; 'I' for Inactive)
REMARK    1  A    between atoms: C1_1  and  C2_2
REMARK    2  A    between atoms: C5_6  and  C6_7
REMARK    3  A    between atoms: C11_15  and  C19_25
REMARK    4  A    between atoms: N4_17  and  C13_18
REMARK                            x       y       z     vdW  Elec       q    Type
REMARK                         _______ _______ _______ _____ _____    ______ ____
ROOT
ATOM      1  C1  UNL     1     159.236 162.652 168.859  0.00  0.00    +0.000 C 
ATOM      2  C2  UNL     1     157.900 162.107 169.289  0.00  0.00    +0.000 C 
ATOM      3  C3  UNL     1     157.275 161.248 168.177  0.00  0.00    +0.000 C 
ATOM      4  N1  UNL     1     157.399 159.850 168.552  0.00  0.00    +0.000 N 
ATOM      5  C4  UNL     1     156.823 159.458 169.822  0.00  0.00    +0.000 C 
ATOM      6  C5  UNL     1     156.947 160.651 170.782  0.00  0.00    +0.000 C 
ATOM      7  C6  UNL     1     157.023 160.138 172.199  0.00  0.00    +0.000 C 
ATOM      8  O1  UNL     1     158.101 161.332 170.430  0.00  0.00    +0.000 OA
ATOM      9  C7  UNL     1     158.088 158.948 167.744  0.00  0.00    +0.000 C 
ATOM     10  N2  UNL     1     159.464 158.941 167.734  0.00  0.00    +0.000 NA
ATOM     11  C8  UNL     1     160.162 158.100 166.971  0.00  0.00    +0.000 C 
ATOM     12  N3  UNL     1     159.565 157.209 166.168  0.00  0.00    +0.000 NA
ATOM     13  C9  UNL     1     158.235 157.157 166.126  0.00  0.00    +0.000 A 
ATOM     14  C10 UNL     1     157.484 158.020 166.908  0.00  0.00    +0.000 A 
ATOM     15  C11 UNL     1     156.179 157.687 166.643  0.00  0.00    +0.000 A 
ATOM     16  C12 UNL     1     156.198 156.638 165.714  0.00  0.00    +0.000 A 
ATOM     17  N4  UNL     1     157.461 156.326 165.407  0.00  0.00    +0.000 N 
ENDROOT
BRANCH  17  18
ATOM     18  C13 UNL     1     157.881 155.304 164.492  0.00  0.00    +0.000 A 
ATOM     19  C14 UNL     1     158.579 154.178 164.875  0.00  0.00    +0.000 A 
ATOM     20  C15 UNL     1     158.964 153.213 163.944  0.00  0.00    +0.000 A 
ATOM     21  C16 UNL     1     158.660 153.352 162.607  0.00  0.00    +0.000 A 
ATOM     22  F1  UNL     1     159.041 152.402 161.702  0.00  0.00    +0.000 F 
ATOM     23  C17 UNL     1     157.962 154.480 162.228  0.00  0.00    +0.000 A 
ATOM     24  C18 UNL     1     157.581 155.437 163.153  0.00  0.00    +0.000 A 
ENDBRANCH  17  18
BRANCH  15  25
ATOM     25  C19 UNL     1     154.968 158.285 167.158  0.00  0.00    +0.000 A 
ATOM     26  C20 UNL     1     154.415 159.430 166.572  0.00  0.00    +0.000 A 
ATOM     27  C21 UNL     1     153.304 160.039 167.067  0.00  0.00    +0.000 A 
ATOM     28  C22 UNL     1     152.688 159.526 168.182  0.00  0.00    +0.000 A 
ATOM     29  C23 UNL     1     153.193 158.414 168.785  0.00  0.00    +0.000 A 
ATOM     30  C24 UNL     1     154.330 157.807 168.261  0.00  0.00    +0.000 A 
ENDBRANCH  15  25
TORSDOF 2
ENDMDL
MODEL 3
REMARK VINA RESULT:      -6.5      4.102      8.718
REMARK  Name = ./3D_structures\o57_MMV093250_3D.pdb
REMARK  4 active torsions:
REMARK  status: ('A' for Active; 'I' for Inactive)
REMARK    1  A    between atoms: C1_1  and  C2_2
REMARK    2  A    between atoms: C5_6  and  C6_7
REMARK    3  A    between atoms: C11_15  and  C19_25
REMARK    4  A    between atoms: N4_17  and  C13_18
REMARK                            x       y       z     vdW  Elec       q    Type
REMARK                         _______ _______ _______ _____ _____    ______ ____
ROOT
ATOM      1  C1  UNL     1     158.218 157.446 161.645  0.00  0.00    +0.000 C 
ATOM      2  C2  UNL     1     159.552 157.120 162.260  0.00  0.00    +0.000 C 
ATOM      3  C3  UNL     1     159.782 157.943 163.539  0.00  0.00    +0.000 C 
ATOM      4  N1  UNL     1     159.608 157.068 164.685  0.00  0.00    +0.000 N 
ATOM      5  C4  UNL     1     160.439 155.883 164.740  0.00  0.00    +0.000 C 
ATOM      6  C5  UNL     1     160.688 155.419 163.296  0.00  0.00    +0.000 C 
ATOM      7  C6  UNL     1     160.916 153.927 163.290  0.00  0.00    +0.000 C 
ATOM      8  O1  UNL     1     159.562 155.760 162.564  0.00  0.00    +0.000 OA
ATOM      9  C7  UNL     1     158.646 157.340 165.656  0.00  0.00    +0.000 C 
ATOM     10  N2  UNL     1     157.319 157.075 165.406  0.00  0.00    +0.000 NA
ATOM     11  C8  UNL     1     156.366 157.326 166.303  0.00  0.00    +0.000 C 
ATOM     12  N3  UNL     1     156.643 157.851 167.504  0.00  0.00    +0.000 NA
ATOM     13  C9  UNL     1     157.907 158.132 167.817  0.00  0.00    +0.000 A 
ATOM     14  C10 UNL     1     158.918 157.882 166.903  0.00  0.00    +0.000 A 
ATOM     15  C11 UNL     1     160.071 158.260 167.545  0.00  0.00    +0.000 A 
ATOM     16  C12 UNL     1     159.707 158.720 168.818  0.00  0.00    +0.000 A 
ATOM     17  N4  UNL     1     158.382 158.637 168.969  0.00  0.00    +0.000 N 
ENDROOT
BRANCH  17  18
ATOM     18  C13 UNL     1     157.638 159.015 170.137  0.00  0.00    +0.000 A 
ATOM     19  C14 UNL     1     157.460 160.323 170.536  0.00  0.00    +0.000 A 
ATOM     20  C15 UNL     1     156.727 160.637 171.680  0.00  0.00    +0.000 A 
ATOM     21  C16 UNL     1     156.155 159.650 172.452  0.00  0.00    +0.000 A 
ATOM     22  F1  UNL     1     155.438 159.967 173.572  0.00  0.00    +0.000 F 
ATOM     23  C17 UNL     1     156.335 158.343 172.050  0.00  0.00    +0.000 A 
ATOM     24  C18 UNL     1     157.063 158.033 170.914  0.00  0.00    +0.000 A 
ENDBRANCH  17  18
BRANCH  15  25
ATOM     25  C19 UNL     1     161.429 158.247 167.051  0.00  0.00    +0.000 A 
ATOM     26  C20 UNL     1     162.335 157.252 167.435  0.00  0.00    +0.000 A 
ATOM     27  C21 UNL     1     163.632 157.246 167.023  0.00  0.00    +0.000 A 
ATOM     28  C22 UNL     1     164.086 158.245 166.199  0.00  0.00    +0.000 A 
ATOM     29  C23 UNL     1     163.239 159.234 165.800  0.00  0.00    +0.000 A 
ATOM     30  C24 UNL     1     161.918 159.220 166.233  0.00  0.00    +0.000 A 
ENDBRANCH  15  25
TORSDOF 2
ENDMDL
MODEL 4
REMARK VINA RESULT:      -6.5      2.145      3.232
REMARK  Name = ./3D_structures\o57_MMV093250_3D.pdb
REMARK  4 active torsions:
REMARK  status: ('A' for Active; 'I' for Inactive)
REMARK    1  A    between atoms: C1_1  and  C2_2
REMARK    2  A    between atoms: C5_6  and  C6_7
REMARK    3  A    between atoms: C11_15  and  C19_25
REMARK    4  A    between atoms: N4_17  and  C13_18
REMARK                            x       y       z     vdW  Elec       q    Type
REMARK                         _______ _______ _______ _____ _____    ______ ____
ROOT
ATOM      1  C1  UNL     1     154.422 160.566 172.355  0.00  0.00    +0.000 C 
ATOM      2  C2  UNL     1     153.569 160.908 171.163  0.00  0.00    +0.000 C 
ATOM      3  C3  UNL     1     154.392 160.843 169.865  0.00  0.00    +0.000 C 
ATOM      4  N1  UNL     1     154.022 159.636 169.147  0.00  0.00    +0.000 N 
ATOM      5  C4  UNL     1     152.621 159.471 168.818  0.00  0.00    +0.000 C 
ATOM      6  C5  UNL     1     151.796 160.129 169.936  0.00  0.00    +0.000 C 
ATOM      7  C6  UNL     1     150.458 159.439 170.033  0.00  0.00    +0.000 C 
ATOM      8  O1  UNL     1     152.523 159.989 171.107  0.00  0.00    +0.000 OA
ATOM      9  C7  UNL     1     154.971 158.664 168.839  0.00  0.00    +0.000 C 
ATOM     10  N2  UNL     1     155.418 157.802 169.814  0.00  0.00    +0.000 NA
ATOM     11  C8  UNL     1     156.330 156.863 169.565  0.00  0.00    +0.000 C 
ATOM     12  N3  UNL     1     156.868 156.701 168.349  0.00  0.00    +0.000 NA
ATOM     13  C9  UNL     1     156.483 157.500 167.354  0.00  0.00    +0.000 A 
ATOM     14  C10 UNL     1     155.537 158.485 167.585  0.00  0.00    +0.000 A 
ATOM     15  C11 UNL     1     155.360 159.094 166.368  0.00  0.00    +0.000 A 
ATOM     16  C12 UNL     1     156.207 158.450 165.455  0.00  0.00    +0.000 A 
ATOM     17  N4  UNL     1     156.887 157.479 166.072  0.00  0.00    +0.000 N 
ENDROOT
BRANCH  17  18
ATOM     18  C13 UNL     1     157.848 156.603 165.467  0.00  0.00    +0.000 A 
ATOM     19  C14 UNL     1     157.525 155.380 164.917  0.00  0.00    +0.000 A 
ATOM     20  C15 UNL     1     158.500 154.566 164.340  0.00  0.00    +0.000 A 
ATOM     21  C16 UNL     1     159.820 154.956 164.299  0.00  0.00    +0.000 A 
ATOM     22  F1  UNL     1     160.768 154.151 163.731  0.00  0.00    +0.000 F 
ATOM     23  C17 UNL     1     160.140 156.179 164.849  0.00  0.00    +0.000 A 
ATOM     24  C18 UNL     1     159.171 156.986 165.422  0.00  0.00    +0.000 A 
ENDBRANCH  17  18
BRANCH  15  25
ATOM     25  C19 UNL     1     154.511 160.212 166.028  0.00  0.00    +0.000 A 
ATOM     26  C20 UNL     1     153.243 160.020 165.466  0.00  0.00    +0.000 A 
ATOM     27  C21 UNL     1     152.446 161.057 165.093  0.00  0.00    +0.000 A 
ATOM     28  C22 UNL     1     152.883 162.347 165.265  0.00  0.00    +0.000 A 
ATOM     29  C23 UNL     1     154.110 162.580 165.807  0.00  0.00    +0.000 A 
ATOM     30  C24 UNL     1     154.909 161.505 166.182  0.00  0.00    +0.000 A 
ENDBRANCH  15  25
TORSDOF 2
ENDMDL
MODEL 5
REMARK VINA RESULT:      -6.3      4.465      7.757
REMARK  Name = ./3D_structures\o57_MMV093250_3D.pdb
REMARK  4 active torsions:
REMARK  status: ('A' for Active; 'I' for Inactive)
REMARK    1  A    between atoms: C1_1  and  C2_2
REMARK    2  A    between atoms: C5_6  and  C6_7
REMARK    3  A    between atoms: C11_15  and  C19_25
REMARK    4  A    between atoms: N4_17  and  C13_18
REMARK                            x       y       z     vdW  Elec       q    Type
REMARK                         _______ _______ _______ _____ _____    ______ ____
ROOT
ATOM      1  C1  UNL     1     155.411 160.047 173.538  0.00  0.00    +0.000 C 
ATOM      2  C2  UNL     1     155.970 159.764 172.169  0.00  0.00    +0.000 C 
ATOM      3  C3  UNL     1     154.839 159.561 171.147  0.00  0.00    +0.000 C 
ATOM      4  N1  UNL     1     154.755 160.748 170.313  0.00  0.00    +0.000 N 
ATOM      5  C4  UNL     1     155.957 161.139 169.605  0.00  0.00    +0.000 C 
ATOM      6  C5  UNL     1     157.162 160.745 170.474  0.00  0.00    +0.000 C 
ATOM      7  C6  UNL     1     158.311 161.676 170.175  0.00  0.00    +0.000 C 
ATOM      8  O1  UNL     1     156.757 160.852 171.795  0.00  0.00    +0.000 OA
ATOM      9  C7  UNL     1     153.583 161.497 170.246  0.00  0.00    +0.000 C 
ATOM     10  N2  UNL     1     153.245 162.345 171.276  0.00  0.00    +0.000 NA
ATOM     11  C8  UNL     1     152.129 163.074 171.255  0.00  0.00    +0.000 C 
ATOM     12  N3  UNL     1     151.269 163.025 170.230  0.00  0.00    +0.000 NA
ATOM     13  C9  UNL     1     151.531 162.227 169.195  0.00  0.00    +0.000 A 
ATOM     14  C10 UNL     1     152.683 161.457 169.191  0.00  0.00    +0.000 A 
ATOM     15  C11 UNL     1     152.651 160.787 167.994  0.00  0.00    +0.000 A 
ATOM     16  C12 UNL     1     151.482 161.180 167.328  0.00  0.00    +0.000 A 
ATOM     17  N4  UNL     1     150.808 162.060 168.075  0.00  0.00    +0.000 N 
ENDROOT
BRANCH  17  18
ATOM     18  C13 UNL     1     149.564 162.687 167.728  0.00  0.00    +0.000 A 
ATOM     19  C14 UNL     1     148.334 162.094 167.915  0.00  0.00    +0.000 A 
ATOM     20  C15 UNL     1     147.154 162.748 167.561  0.00  0.00    +0.000 A 
ATOM     21  C16 UNL     1     147.177 164.011 167.011  0.00  0.00    +0.000 A 
ATOM     22  F1  UNL     1     146.016 164.644 166.667  0.00  0.00    +0.000 F 
ATOM     23  C17 UNL     1     148.410 164.601 166.826  0.00  0.00    +0.000 A 
ATOM     24  C18 UNL     1     149.581 163.950 167.177  0.00  0.00    +0.000 A 
ENDBRANCH  17  18
BRANCH  15  25
ATOM     25  C19 UNL     1     153.588 159.818 167.472  0.00  0.00    +0.000 A 
ATOM     26  C20 UNL     1     154.369 160.095 166.344  0.00  0.00    +0.000 A 
ATOM     27  C21 UNL     1     155.222 159.183 165.804  0.00  0.00    +0.000 A 
ATOM     28  C22 UNL     1     155.335 157.939 166.374  0.00  0.00    +0.000 A 
ATOM     29  C23 UNL     1     154.593 157.627 167.472  0.00  0.00    +0.000 A 
ATOM     30  C24 UNL     1     153.727 158.574 168.008  0.00  0.00    +0.000 A 
ENDBRANCH  15  25
TORSDOF 2
ENDMDL
MODEL 6
REMARK VINA RESULT:      -6.2      3.242      5.158
REMARK  Name = ./3D_structures\o57_MMV093250_3D.pdb
REMARK  4 active torsions:
REMARK  status: ('A' for Active; 'I' for Inactive)
REMARK    1  A    between atoms: C1_1  and  C2_2
REMARK    2  A    between atoms: C5_6  and  C6_7
REMARK    3  A    between atoms: C11_15  and  C19_25
REMARK    4  A    between atoms: N4_17  and  C13_18
REMARK                            x       y       z     vdW  Elec       q    Type
REMARK                         _______ _______ _______ _____ _____    ______ ____
ROOT
ATOM      1  C1  UNL     1     148.387 162.527 167.548  0.00  0.00    +0.000 C 
ATOM      2  C2  UNL     1     149.027 162.618 168.907  0.00  0.00    +0.000 C 
ATOM      3  C3  UNL     1     149.904 161.385 169.184  0.00  0.00    +0.000 C 
ATOM      4  N1  UNL     1     151.297 161.775 169.059  0.00  0.00    +0.000 N 
ATOM      5  C4  UNL     1     151.751 162.866 169.897  0.00  0.00    +0.000 C 
ATOM      6  C5  UNL     1     150.571 163.831 170.091  0.00  0.00    +0.000 C 
ATOM      7  C6  UNL     1     151.105 165.223 170.325  0.00  0.00    +0.000 C 
ATOM      8  O1  UNL     1     149.809 163.772 168.935  0.00  0.00    +0.000 OA
ATOM      9  C7  UNL     1     152.136 161.157 168.134  0.00  0.00    +0.000 C 
ATOM     10  N2  UNL     1     152.052 161.481 166.799  0.00  0.00    +0.000 NA
ATOM     11  C8  UNL     1     152.830 160.908 165.882  0.00  0.00    +0.000 C 
ATOM     12  N3  UNL     1     153.742 159.982 166.203  0.00  0.00    +0.000 NA
ATOM     13  C9  UNL     1     153.881 159.618 167.477  0.00  0.00    +0.000 A 
ATOM     14  C10 UNL     1     153.085 160.196 168.452  0.00  0.00    +0.000 A 
ATOM     15  C11 UNL     1     153.498 159.622 169.628  0.00  0.00    +0.000 A 
ATOM     16  C12 UNL     1     154.526 158.721 169.312  0.00  0.00    +0.000 A 
ATOM     17  N4  UNL     1     154.748 158.730 167.995  0.00  0.00    +0.000 N 
ENDROOT
BRANCH  17  18
ATOM     18  C13 UNL     1     155.722 157.941 167.296  0.00  0.00    +0.000 A 
ATOM     19  C14 UNL     1     155.446 157.235 166.144  0.00  0.00    +0.000 A 
ATOM     20  C15 UNL     1     156.431 156.483 165.503  0.00  0.00    +0.000 A 
ATOM     21  C16 UNL     1     157.715 156.421 165.999  0.00  0.00    +0.000 A 
ATOM     22  F1  UNL     1     158.673 155.682 165.364  0.00  0.00    +0.000 F 
ATOM     23  C17 UNL     1     157.987 157.128 167.151  0.00  0.00    +0.000 A 
ATOM     24  C18 UNL     1     157.008 157.874 167.787  0.00  0.00    +0.000 A 
ENDBRANCH  17  18
BRANCH  15  25
ATOM     25  C19 UNL     1     152.992 159.828 170.966  0.00  0.00    +0.000 A 
ATOM     26  C20 UNL     1     153.733 160.528 171.925  0.00  0.00    +0.000 A 
ATOM     27  C21 UNL     1     153.300 160.693 173.204  0.00  0.00    +0.000 A 
ATOM     28  C22 UNL     1     152.093 160.162 173.587  0.00  0.00    +0.000 A 
ATOM     29  C23 UNL     1     151.339 159.474 172.686  0.00  0.00    +0.000 A 
ATOM     30  C24 UNL     1     151.801 159.316 171.383  0.00  0.00    +0.000 A 
ENDBRANCH  15  25
TORSDOF 2
ENDMDL
MODEL 7
REMARK VINA RESULT:      -6.2      3.891      8.280
REMARK  Name = ./3D_structures\o57_MMV093250_3D.pdb
REMARK  4 active torsions:
REMARK  status: ('A' for Active; 'I' for Inactive)
REMARK    1  A    between atoms: C1_1  and  C2_2
REMARK    2  A    between atoms: C5_6  and  C6_7
REMARK    3  A    between atoms: C11_15  and  C19_25
REMARK    4  A    between atoms: N4_17  and  C13_18
REMARK                            x       y       z     vdW  Elec       q    Type
REMARK                         _______ _______ _______ _____ _____    ______ ____
ROOT
ATOM      1  C1  UNL     1     164.205 156.298 165.564  0.00  0.00    +0.000 C 
ATOM      2  C2  UNL     1     163.357 155.985 164.360  0.00  0.00    +0.000 C 
ATOM      3  C3  UNL     1     161.957 155.512 164.785  0.00  0.00    +0.000 C 
ATOM      4  N1  UNL     1     161.014 156.589 164.539  0.00  0.00    +0.000 N 
ATOM      5  C4  UNL     1     160.941 157.102 163.187  0.00  0.00    +0.000 C 
ATOM      6  C5  UNL     1     162.342 156.987 162.565  0.00  0.00    +0.000 C 
ATOM      7  C6  UNL     1     162.506 158.059 161.516  0.00  0.00    +0.000 C 
ATOM      8  O1  UNL     1     163.253 157.147 163.596  0.00  0.00    +0.000 OA
ATOM      9  C7  UNL     1     160.258 157.132 165.576  0.00  0.00    +0.000 C 
ATOM     10  N2  UNL     1     160.835 158.005 166.470  0.00  0.00    +0.000 NA
ATOM     11  C8  UNL     1     160.150 158.540 167.479  0.00  0.00    +0.000 C 
ATOM     12  N3  UNL     1     158.856 158.262 167.685  0.00  0.00    +0.000 NA
ATOM     13  C9  UNL     1     158.229 157.426 166.859  0.00  0.00    +0.000 A 
ATOM     14  C10 UNL     1     158.917 156.853 165.801  0.00  0.00    +0.000 A 
ATOM     15  C11 UNL     1     157.986 156.080 165.155  0.00  0.00    +0.000 A 
ATOM     16  C12 UNL     1     156.776 156.219 165.850  0.00  0.00    +0.000 A 
ATOM     17  N4  UNL     1     156.941 157.044 166.888  0.00  0.00    +0.000 N 
ENDROOT
BRANCH  17  18
ATOM     18  C13 UNL     1     155.930 157.429 167.831  0.00  0.00    +0.000 A 
ATOM     19  C14 UNL     1     156.028 157.206 169.188  0.00  0.00    +0.000 A 
ATOM     20  C15 UNL     1     155.016 157.601 170.062  0.00  0.00    +0.000 A 
ATOM     21  C16 UNL     1     153.881 158.231 169.599  0.00  0.00    +0.000 A 
ATOM     22  F1  UNL     1     152.894 158.615 170.463  0.00  0.00    +0.000 F 
ATOM     23  C17 UNL     1     153.786 158.453 168.241  0.00  0.00    +0.000 A 
ATOM     24  C18 UNL     1     154.792 158.059 167.375  0.00  0.00    +0.000 A 
ENDBRANCH  17  18
BRANCH  15  25
ATOM     25  C19 UNL     1     158.157 155.231 163.998  0.00  0.00    +0.000 A 
ATOM     26  C20 UNL     1     157.747 155.643 162.725  0.00  0.00    +0.000 A 
ATOM     27  C21 UNL     1     157.853 154.843 161.630  0.00  0.00    +0.000 A 
ATOM     28  C22 UNL     1     158.379 153.582 161.758  0.00  0.00    +0.000 A 
ATOM     29  C23 UNL     1     158.790 153.140 162.978  0.00  0.00    +0.000 A 
ATOM     30  C24 UNL     1     158.673 153.974 164.085  0.00  0.00    +0.000 A 
ENDBRANCH  15  25
TORSDOF 2
ENDMDL
MODEL 8
REMARK VINA RESULT:      -6.2      2.162      4.151
REMARK  Name = ./3D_structures\o57_MMV093250_3D.pdb
REMARK  4 active torsions:
REMARK  status: ('A' for Active; 'I' for Inactive)
REMARK    1  A    between atoms: C1_1  and  C2_2
REMARK    2  A    between atoms: C5_6  and  C6_7
REMARK    3  A    between atoms: C11_15  and  C19_25
REMARK    4  A    between atoms: N4_17  and  C13_18
REMARK                            x       y       z     vdW  Elec       q    Type
REMARK                         _______ _______ _______ _____ _____    ______ ____
ROOT
ATOM      1  C1  UNL     1     150.327 160.335 169.211  0.00  0.00    +0.000 C 
ATOM      2  C2  UNL     1     151.361 160.978 170.095  0.00  0.00    +0.000 C 
ATOM      3  C3  UNL     1     152.618 160.097 170.199  0.00  0.00    +0.000 C 
ATOM      4  N1  UNL     1     153.667 160.698 169.394  0.00  0.00    +0.000 N 
ATOM      5  C4  UNL     1     154.031 162.065 169.703  0.00  0.00    +0.000 C 
ATOM      6  C5  UNL     1     152.767 162.786 170.199  0.00  0.00    +0.000 C 
ATOM      7  C6  UNL     1     152.883 164.257 169.884  0.00  0.00    +0.000 C 
ATOM      8  O1  UNL     1     151.693 162.213 169.539  0.00  0.00    +0.000 OA
ATOM      9  C7  UNL     1     154.253 159.998 168.341  0.00  0.00    +0.000 C 
ATOM     10  N2  UNL     1     153.583 159.859 167.147  0.00  0.00    +0.000 NA
ATOM     11  C8  UNL     1     154.104 159.192 166.117  0.00  0.00    +0.000 C 
ATOM     12  N3  UNL     1     155.312 158.617 166.182  0.00  0.00    +0.000 NA
ATOM     13  C9  UNL     1     156.020 158.711 167.307  0.00  0.00    +0.000 A 
ATOM     14  C10 UNL     1     155.502 159.398 168.394  0.00  0.00    +0.000 A 
ATOM     15  C11 UNL     1     156.479 159.320 169.354  0.00  0.00    +0.000 A 
ATOM     16  C12 UNL     1     157.544 158.590 168.807  0.00  0.00    +0.000 A 
ATOM     17  N4  UNL     1     157.248 158.225 167.556  0.00  0.00    +0.000 N 
ENDROOT
BRANCH  17  18
ATOM     18  C13 UNL     1     158.089 157.466 166.675  0.00  0.00    +0.000 A 
ATOM     19  C14 UNL     1     159.335 157.887 166.261  0.00  0.00    +0.000 A 
ATOM     20  C15 UNL     1     160.113 157.110 165.402  0.00  0.00    +0.000 A 
ATOM     21  C16 UNL     1     159.663 155.894 164.939  0.00  0.00    +0.000 A 
ATOM     22  F1  UNL     1     160.433 155.139 164.098  0.00  0.00    +0.000 F 
ATOM     23  C17 UNL     1     158.417 155.475 165.355  0.00  0.00    +0.000 A 
ATOM     24  C18 UNL     1     157.645 156.248 166.207  0.00  0.00    +0.000 A 
ENDBRANCH  17  18
BRANCH  15  25
ATOM     25  C19 UNL     1     156.467 159.835 170.704  0.00  0.00    +0.000 A 
ATOM     26  C20 UNL     1     155.797 159.163 171.734  0.00  0.00    +0.000 A 
ATOM     27  C21 UNL     1     155.730 159.652 173.002  0.00  0.00    +0.000 A 
ATOM     28  C22 UNL     1     156.335 160.847 173.302  0.00  0.00    +0.000 A 
ATOM     29  C23 UNL     1     156.997 161.534 172.331  0.00  0.00    +0.000 A 
ATOM     30  C24 UNL     1     157.054 161.016 171.041  0.00  0.00    +0.000 A 
ENDBRANCH  15  25
TORSDOF 2
ENDMDL
MODEL 9
REMARK VINA RESULT:      -6.0      4.378      7.868
REMARK  Name = ./3D_structures\o57_MMV093250_3D.pdb
REMARK  4 active torsions:
REMARK  status: ('A' for Active; 'I' for Inactive)
REMARK    1  A    between atoms: C1_1  and  C2_2
REMARK    2  A    between atoms: C5_6  and  C6_7
REMARK    3  A    between atoms: C11_15  and  C19_25
REMARK    4  A    between atoms: N4_17  and  C13_18
REMARK                            x       y       z     vdW  Elec       q    Type
REMARK                         _______ _______ _______ _____ _____    ______ ____
ROOT
ATOM      1  C1  UNL     1     158.059 160.693 164.565  0.00  0.00    +0.000 C 
ATOM      2  C2  UNL     1     157.988 159.653 165.651  0.00  0.00    +0.000 C 
ATOM      3  C3  UNL     1     157.044 160.103 166.779  0.00  0.00    +0.000 C 
ATOM      4  N1  UNL     1     155.808 159.348 166.672  0.00  0.00    +0.000 N 
ATOM      5  C4  UNL     1     155.916 157.904 166.704  0.00  0.00    +0.000 C 
ATOM      6  C5  UNL     1     157.253 157.519 166.052  0.00  0.00    +0.000 C 
ATOM      7  C6  UNL     1     157.129 156.141 165.450  0.00  0.00    +0.000 C 
ATOM      8  O1  UNL     1     157.515 158.472 165.082  0.00  0.00    +0.000 OA
ATOM      9  C7  UNL     1     154.586 159.993 166.494  0.00  0.00    +0.000 C 
ATOM     10  N2  UNL     1     154.243 160.495 165.260  0.00  0.00    +0.000 NA
ATOM     11  C8  UNL     1     153.087 161.125 165.048  0.00  0.00    +0.000 C 
ATOM     12  N3  UNL     1     152.189 161.306 166.025  0.00  0.00    +0.000 NA
ATOM     13  C9  UNL     1     152.452 160.845 167.247  0.00  0.00    +0.000 A 
ATOM     14  C10 UNL     1     153.645 160.188 167.496  0.00  0.00    +0.000 A 
ATOM     15  C11 UNL     1     153.581 159.834 168.820  0.00  0.00    +0.000 A 
ATOM     16  C12 UNL     1     152.352 160.294 169.314  0.00  0.00    +0.000 A 
ATOM     17  N4  UNL     1     151.674 160.910 168.341  0.00  0.00    +0.000 N 
ENDROOT
BRANCH  17  18
ATOM     18  C13 UNL     1     150.376 161.510 168.464  0.00  0.00    +0.000 A 
ATOM     19  C14 UNL     1     149.244 161.010 167.856  0.00  0.00    +0.000 A 
ATOM     20  C15 UNL     1     148.005 161.633 168.009  0.00  0.00    +0.000 A 
ATOM     21  C16 UNL     1     147.870 162.771 168.773  0.00  0.00    +0.000 A 
ATOM     22  F1  UNL     1     146.653 163.374 168.917  0.00  0.00    +0.000 F 
ATOM     23  C17 UNL     1     149.005 163.268 169.379  0.00  0.00    +0.000 A 
ATOM     24  C18 UNL     1     150.234 162.649 169.227  0.00  0.00    +0.000 A 
ENDBRANCH  17  18
BRANCH  15  25
ATOM     25  C19 UNL     1     154.568 159.153 169.626  0.00  0.00    +0.000 A 
ATOM     26  C20 UNL     1     155.552 159.862 170.326  0.00  0.00    +0.000 A 
ATOM     27  C21 UNL     1     156.521 159.241 171.052  0.00  0.00    +0.000 A 
ATOM     28  C22 UNL     1     156.552 157.870 171.112  0.00  0.00    +0.000 A 
ATOM     29  C23 UNL     1     155.614 157.141 170.447  0.00  0.00    +0.000 A 
ATOM     30  C24 UNL     1     154.632 157.796 169.710  0.00  0.00    +0.000 A 
ENDBRANCH  15  25
TORSDOF 2
ENDMDL
