MODEL 1
REMARK VINA RESULT:      -8.4      0.000      0.000
REMARK  Name = ./3D_structures\o58_MMV1593541_3D.pdb
REMARK  5 active torsions:
REMARK  status: ('A' for Active; 'I' for Inactive)
REMARK    1  A    between atoms: N1_1  and  C1_2
REMARK    2  A    between atoms: C3_4  and  C20_26
REMARK    3  A    between atoms: C7_9  and  N3_10
REMARK    4  A    between atoms: N3_10  and  C8_11
REMARK    5  A    between atoms: C10_13  and  C12_18
REMARK                            x       y       z     vdW  Elec       q    Type
REMARK                         _______ _______ _______ _____ _____    ______ ____
ROOT
ATOM      1  C1  UNL     1     151.157 162.054 167.451  0.00  0.00    +0.000 A 
ATOM      2  C2  UNL     1     152.138 161.113 167.194  0.00  0.00    +0.000 A 
ATOM      3  C3  UNL     1     153.016 161.300 166.170  0.00  0.00    +0.000 A 
ATOM      4  N2  UNL     1     152.941 162.418 165.383  0.00  0.00    +0.000 NA
ATOM      5  C4  UNL     1     152.003 163.356 165.599  0.00  0.00    +0.000 A 
ATOM      6  C5  UNL     1     151.923 164.493 164.803  0.00  0.00    +0.000 A 
ATOM      7  C6  UNL     1     150.971 165.451 165.016  0.00  0.00    +0.000 A 
ATOM      8  C7  UNL     1     150.057 165.278 166.066  0.00  0.00    +0.000 A 
ATOM      9  C18 UNL     1     150.155 164.150 166.836  0.00  0.00    +0.000 A 
ATOM     10  C19 UNL     1     151.112 163.172 166.632  0.00  0.00    +0.000 A 
ENDROOT
BRANCH   3  11
ATOM     11  C20 UNL     1     154.050 160.321 165.891  0.00  0.00    +0.000 A 
ATOM     12  C21 UNL     1     155.148 160.727 165.129  0.00  0.00    +0.000 A 
ATOM     13  C22 UNL     1     156.129 159.827 164.855  0.00  0.00    +0.000 A 
ATOM     14  C23 UNL     1     156.076 158.518 165.305  0.00  0.00    +0.000 A 
ATOM     15  F1  UNL     1     157.077 157.641 165.012  0.00  0.00    +0.000 F 
ATOM     16  C24 UNL     1     155.003 158.108 166.055  0.00  0.00    +0.000 A 
ATOM     17  C25 UNL     1     154.004 159.031 166.333  0.00  0.00    +0.000 A 
ENDBRANCH   3  11
BRANCH   1  18
ATOM     18  N1  UNL     1     150.217 161.926 168.489  0.00  0.00    +0.000 N 
ATOM     19  H1  UNL     1     149.525 161.131 168.517  0.00  0.00    +0.000 HD
ATOM     20  H2  UNL     1     150.229 162.659 169.243  0.00  0.00    +0.000 HD
ENDBRANCH   1  18
BRANCH   8  21
ATOM     21  N3  UNL     1     149.091 166.270 166.266  0.00  0.00    +0.000 N 
ATOM     22  H6  UNL     1     149.436 167.224 166.604  0.00  0.00    +0.000 HD
BRANCH  21  23
ATOM     23  C8  UNL     1     147.694 166.195 166.084  0.00  0.00    +0.000 C 
ATOM     24  C9  UNL     1     147.035 164.951 166.099  0.00  0.00    +0.000 C 
ATOM     25  C10 UNL     1     145.685 164.814 165.928  0.00  0.00    +0.000 C 
ATOM     26  N4  UNL     1     144.959 165.942 165.736  0.00  0.00    +0.000 NA
ATOM     27  C11 UNL     1     145.557 167.144 165.716  0.00  0.00    +0.000 C 
ATOM     28  N5  UNL     1     144.746 168.292 165.511  0.00  0.00    +0.000 N 
ATOM     29  N6  UNL     1     146.882 167.238 165.887  0.00  0.00    +0.000 NA
ATOM     30  H8  UNL     1     145.098 169.222 165.879  0.00  0.00    +0.000 HD
ATOM     31  H9  UNL     1     143.842 168.281 165.031  0.00  0.00    +0.000 HD
BRANCH  25  32
ATOM     32  C12 UNL     1     144.998 163.530 165.942  0.00  0.00    +0.000 A 
ATOM     33  C13 UNL     1     144.636 162.955 167.149  0.00  0.00    +0.000 A 
ATOM     34  C14 UNL     1     143.986 161.742 167.202  0.00  0.00    +0.000 A 
ATOM     35  C15 UNL     1     143.663 161.039 166.062  0.00  0.00    +0.000 A 
ATOM     36  C16 UNL     1     144.018 161.600 164.855  0.00  0.00    +0.000 A 
ATOM     37  C17 UNL     1     144.679 162.835 164.805  0.00  0.00    +0.000 A 
ENDBRANCH  25  32
ENDBRANCH  21  23
ENDBRANCH   8  21
TORSDOF 5
ENDMDL
MODEL 2
REMARK VINA RESULT:      -8.4      1.256      2.085
REMARK  Name = ./3D_structures\o58_MMV1593541_3D.pdb
REMARK  5 active torsions:
REMARK  status: ('A' for Active; 'I' for Inactive)
REMARK    1  A    between atoms: N1_1  and  C1_2
REMARK    2  A    between atoms: C3_4  and  C20_26
REMARK    3  A    between atoms: C7_9  and  N3_10
REMARK    4  A    between atoms: N3_10  and  C8_11
REMARK    5  A    between atoms: C10_13  and  C12_18
REMARK                            x       y       z     vdW  Elec       q    Type
REMARK                         _______ _______ _______ _____ _____    ______ ____
ROOT
ATOM      1  C1  UNL     1     152.167 162.634 164.864  0.00  0.00    +0.000 A 
ATOM      2  C2  UNL     1     152.908 161.529 165.244  0.00  0.00    +0.000 A 
ATOM      3  C3  UNL     1     152.827 161.055 166.519  0.00  0.00    +0.000 A 
ATOM      4  N2  UNL     1     152.014 161.662 167.438  0.00  0.00    +0.000 NA
ATOM      5  C4  UNL     1     151.278 162.737 167.109  0.00  0.00    +0.000 A 
ATOM      6  C5  UNL     1     150.451 163.357 168.039  0.00  0.00    +0.000 A 
ATOM      7  C6  UNL     1     149.699 164.452 167.713  0.00  0.00    +0.000 A 
ATOM      8  C7  UNL     1     149.768 164.956 166.404  0.00  0.00    +0.000 A 
ATOM      9  C18 UNL     1     150.589 164.329 165.507  0.00  0.00    +0.000 A 
ATOM     10  C19 UNL     1     151.356 163.222 165.823  0.00  0.00    +0.000 A 
ENDROOT
BRANCH   3  11
ATOM     11  C20 UNL     1     153.599 159.897 166.929  0.00  0.00    +0.000 A 
ATOM     12  C21 UNL     1     153.686 159.619 168.295  0.00  0.00    +0.000 A 
ATOM     13  C22 UNL     1     154.404 158.539 168.704  0.00  0.00    +0.000 A 
ATOM     14  C23 UNL     1     155.054 157.705 167.810  0.00  0.00    +0.000 A 
ATOM     15  F1  UNL     1     155.766 156.631 168.253  0.00  0.00    +0.000 F 
ATOM     16  C24 UNL     1     154.977 157.968 166.466  0.00  0.00    +0.000 A 
ATOM     17  C25 UNL     1     154.242 159.072 166.054  0.00  0.00    +0.000 A 
ENDBRANCH   3  11
BRANCH   1  18
ATOM     18  N1  UNL     1     152.201 163.178 163.568  0.00  0.00    +0.000 N 
ATOM     19  H1  UNL     1     152.123 162.572 162.709  0.00  0.00    +0.000 HD
ATOM     20  H2  UNL     1     152.308 164.221 163.486  0.00  0.00    +0.000 HD
ENDBRANCH   1  18
BRANCH   8  21
ATOM     21  N3  UNL     1     148.990 166.076 166.092  0.00  0.00    +0.000 N 
ATOM     22  H6  UNL     1     149.509 166.994 165.913  0.00  0.00    +0.000 HD
BRANCH  21  23
ATOM     23  C8  UNL     1     147.588 166.175 165.976  0.00  0.00    +0.000 C 
ATOM     24  C9  UNL     1     146.781 165.022 166.022  0.00  0.00    +0.000 C 
ATOM     25  C10 UNL     1     145.418 165.055 165.915  0.00  0.00    +0.000 C 
ATOM     26  N4  UNL     1     144.829 166.265 165.757  0.00  0.00    +0.000 NA
ATOM     27  C11 UNL     1     145.569 167.383 165.709  0.00  0.00    +0.000 C 
ATOM     28  N5  UNL     1     144.898 168.624 165.542  0.00  0.00    +0.000 N 
ATOM     29  N6  UNL     1     146.903 167.312 165.817  0.00  0.00    +0.000 NA
ATOM     30  H8  UNL     1     145.379 169.501 165.893  0.00  0.00    +0.000 HD
ATOM     31  H9  UNL     1     143.978 168.728 165.105  0.00  0.00    +0.000 HD
BRANCH  25  32
ATOM     32  C12 UNL     1     144.579 163.865 165.962  0.00  0.00    +0.000 A 
ATOM     33  C13 UNL     1     143.736 163.658 167.042  0.00  0.00    +0.000 A 
ATOM     34  C14 UNL     1     142.928 162.545 167.121  0.00  0.00    +0.000 A 
ATOM     35  C15 UNL     1     142.916 161.583 166.134  0.00  0.00    +0.000 A 
ATOM     36  C16 UNL     1     143.750 161.777 165.056  0.00  0.00    +0.000 A 
ATOM     37  C17 UNL     1     144.571 162.911 164.978  0.00  0.00    +0.000 A 
ENDBRANCH  25  32
ENDBRANCH  21  23
ENDBRANCH   8  21
TORSDOF 5
ENDMDL
MODEL 3
REMARK VINA RESULT:      -7.7      1.635      2.217
REMARK  Name = ./3D_structures\o58_MMV1593541_3D.pdb
REMARK  5 active torsions:
REMARK  status: ('A' for Active; 'I' for Inactive)
REMARK    1  A    between atoms: N1_1  and  C1_2
REMARK    2  A    between atoms: C3_4  and  C20_26
REMARK    3  A    between atoms: C7_9  and  N3_10
REMARK    4  A    between atoms: N3_10  and  C8_11
REMARK    5  A    between atoms: C10_13  and  C12_18
REMARK                            x       y       z     vdW  Elec       q    Type
REMARK                         _______ _______ _______ _____ _____    ______ ____
ROOT
ATOM      1  C1  UNL     1     151.591 161.438 167.436  0.00  0.00    +0.000 A 
ATOM      2  C2  UNL     1     152.622 160.563 167.149  0.00  0.00    +0.000 A 
ATOM      3  C3  UNL     1     153.460 160.812 166.104  0.00  0.00    +0.000 A 
ATOM      4  N2  UNL     1     153.295 161.926 165.327  0.00  0.00    +0.000 NA
ATOM      5  C4  UNL     1     152.305 162.801 165.573  0.00  0.00    +0.000 A 
ATOM      6  C5  UNL     1     152.133 163.935 164.787  0.00  0.00    +0.000 A 
ATOM      7  C6  UNL     1     151.128 164.830 165.030  0.00  0.00    +0.000 A 
ATOM      8  C7  UNL     1     150.253 164.593 166.102  0.00  0.00    +0.000 A 
ATOM      9  C18 UNL     1     150.443 163.470 166.861  0.00  0.00    +0.000 A 
ATOM     10  C19 UNL     1     151.454 162.556 166.627  0.00  0.00    +0.000 A 
ENDROOT
BRANCH   3  11
ATOM     11  C20 UNL     1     154.547 159.901 165.793  0.00  0.00    +0.000 A 
ATOM     12  C21 UNL     1     154.447 158.584 166.248  0.00  0.00    +0.000 A 
ATOM     13  C22 UNL     1     155.453 157.712 165.969  0.00  0.00    +0.000 A 
ATOM     14  C23 UNL     1     156.575 158.087 165.248  0.00  0.00    +0.000 A 
ATOM     15  F1  UNL     1     157.565 157.189 164.986  0.00  0.00    +0.000 F 
ATOM     16  C24 UNL     1     156.684 159.378 164.797  0.00  0.00    +0.000 A 
ATOM     17  C25 UNL     1     155.654 160.264 165.084  0.00  0.00    +0.000 A 
ENDBRANCH   3  11
BRANCH   1  18
ATOM     18  N1  UNL     1     150.687 161.246 168.497  0.00  0.00    +0.000 N 
ATOM     19  H1  UNL     1     149.696 160.930 168.331  0.00  0.00    +0.000 HD
ATOM     20  H2  UNL     1     151.040 161.430 169.470  0.00  0.00    +0.000 HD
ENDBRANCH   1  18
BRANCH   8  21
ATOM     21  N3  UNL     1     149.232 165.521 166.333  0.00  0.00    +0.000 N 
ATOM     22  H6  UNL     1     149.410 166.529 166.022  0.00  0.00    +0.000 HD
BRANCH  21  23
ATOM     23  C8  UNL     1     147.971 165.318 166.931  0.00  0.00    +0.000 C 
ATOM     24  C9  UNL     1     146.829 165.096 166.138  0.00  0.00    +0.000 C 
ATOM     25  C10 UNL     1     145.580 164.893 166.659  0.00  0.00    +0.000 C 
ATOM     26  N4  UNL     1     145.453 164.909 168.008  0.00  0.00    +0.000 NA
ATOM     27  C11 UNL     1     146.522 165.118 168.792  0.00  0.00    +0.000 C 
ATOM     28  N5  UNL     1     146.329 165.124 170.199  0.00  0.00    +0.000 N 
ATOM     29  N6  UNL     1     147.729 165.313 168.245  0.00  0.00    +0.000 NA
ATOM     30  H8  UNL     1     147.158 164.886 170.816  0.00  0.00    +0.000 HD
ATOM     31  H9  UNL     1     145.440 165.341 170.659  0.00  0.00    +0.000 HD
BRANCH  25  32
ATOM     32  C12 UNL     1     144.396 164.663 165.844  0.00  0.00    +0.000 A 
ATOM     33  C13 UNL     1     144.182 163.419 165.272  0.00  0.00    +0.000 A 
ATOM     34  C14 UNL     1     143.074 163.165 164.495  0.00  0.00    +0.000 A 
ATOM     35  C15 UNL     1     142.123 164.131 164.246  0.00  0.00    +0.000 A 
ATOM     36  C16 UNL     1     142.324 165.372 164.808  0.00  0.00    +0.000 A 
ATOM     37  C17 UNL     1     143.453 165.628 165.598  0.00  0.00    +0.000 A 
ENDBRANCH  25  32
ENDBRANCH  21  23
ENDBRANCH   8  21
TORSDOF 5
ENDMDL
MODEL 4
REMARK VINA RESULT:      -7.7      4.515     11.127
REMARK  Name = ./3D_structures\o58_MMV1593541_3D.pdb
REMARK  5 active torsions:
REMARK  status: ('A' for Active; 'I' for Inactive)
REMARK    1  A    between atoms: N1_1  and  C1_2
REMARK    2  A    between atoms: C3_4  and  C20_26
REMARK    3  A    between atoms: C7_9  and  N3_10
REMARK    4  A    between atoms: N3_10  and  C8_11
REMARK    5  A    between atoms: C10_13  and  C12_18
REMARK                            x       y       z     vdW  Elec       q    Type
REMARK                         _______ _______ _______ _____ _____    ______ ____
ROOT
ATOM      1  C1  UNL     1     151.864 161.456 167.636  0.00  0.00    +0.000 A 
ATOM      2  C2  UNL     1     150.815 162.350 167.514  0.00  0.00    +0.000 A 
ATOM      3  C3  UNL     1     149.647 162.129 168.179  0.00  0.00    +0.000 A 
ATOM      4  N2  UNL     1     149.493 161.024 168.972  0.00  0.00    +0.000 NA
ATOM      5  C4  UNL     1     150.488 160.132 169.116  0.00  0.00    +0.000 A 
ATOM      6  C5  UNL     1     150.337 159.008 169.920  0.00  0.00    +0.000 A 
ATOM      7  C6  UNL     1     151.343 158.094 170.072  0.00  0.00    +0.000 A 
ATOM      8  C7  UNL     1     152.556 158.304 169.397  0.00  0.00    +0.000 A 
ATOM      9  C18 UNL     1     152.681 159.417 168.610  0.00  0.00    +0.000 A 
ATOM     10  C19 UNL     1     151.671 160.349 168.447  0.00  0.00    +0.000 A 
ENDROOT
BRANCH   3  11
ATOM     11  C20 UNL     1     148.539 163.060 168.060  0.00  0.00    +0.000 A 
ATOM     12  C21 UNL     1     148.699 164.163 167.217  0.00  0.00    +0.000 A 
ATOM     13  C22 UNL     1     147.676 165.049 167.090  0.00  0.00    +0.000 A 
ATOM     14  C23 UNL     1     146.479 164.896 167.770  0.00  0.00    +0.000 A 
ATOM     15  F1  UNL     1     145.474 165.803 167.620  0.00  0.00    +0.000 F 
ATOM     16  C24 UNL     1     146.311 163.817 168.601  0.00  0.00    +0.000 A 
ATOM     17  C25 UNL     1     147.359 162.914 168.727  0.00  0.00    +0.000 A 
ENDBRANCH   3  11
BRANCH   1  18
ATOM     18  N1  UNL     1     153.097 161.619 166.980  0.00  0.00    +0.000 N 
ATOM     19  H1  UNL     1     153.464 162.571 166.715  0.00  0.00    +0.000 HD
ATOM     20  H2  UNL     1     153.646 160.749 166.762  0.00  0.00    +0.000 HD
ENDBRANCH   1  18
BRANCH   8  21
ATOM     21  N3  UNL     1     153.573 157.357 169.566  0.00  0.00    +0.000 N 
ATOM     22  H6  UNL     1     153.279 156.377 169.876  0.00  0.00    +0.000 HD
BRANCH  21  23
ATOM     23  C8  UNL     1     154.963 157.510 169.383  0.00  0.00    +0.000 C 
ATOM     24  C9  UNL     1     155.570 157.149 168.165  0.00  0.00    +0.000 C 
ATOM     25  C10 UNL     1     156.912 157.274 167.928  0.00  0.00    +0.000 C 
ATOM     26  N4  UNL     1     157.682 157.772 168.926  0.00  0.00    +0.000 NA
ATOM     27  C11 UNL     1     157.134 158.125 170.099  0.00  0.00    +0.000 C 
ATOM     28  N5  UNL     1     157.989 158.641 171.109  0.00  0.00    +0.000 N 
ATOM     29  N6  UNL     1     155.816 157.988 170.294  0.00  0.00    +0.000 NA
ATOM     30  H8  UNL     1     157.564 159.276 171.845  0.00  0.00    +0.000 HD
ATOM     31  H9  UNL     1     158.992 158.442 171.173  0.00  0.00    +0.000 HD
BRANCH  25  32
ATOM     32  C12 UNL     1     157.545 156.902 166.671  0.00  0.00    +0.000 A 
ATOM     33  C13 UNL     1     156.821 156.212 165.712  0.00  0.00    +0.000 A 
ATOM     34  C14 UNL     1     157.386 155.843 164.511  0.00  0.00    +0.000 A 
ATOM     35  C15 UNL     1     158.696 156.140 164.202  0.00  0.00    +0.000 A 
ATOM     36  C16 UNL     1     159.426 156.825 165.147  0.00  0.00    +0.000 A 
ATOM     37  C17 UNL     1     158.848 157.200 166.368  0.00  0.00    +0.000 A 
ENDBRANCH  25  32
ENDBRANCH  21  23
ENDBRANCH   8  21
TORSDOF 5
ENDMDL
MODEL 5
REMARK VINA RESULT:      -7.6      2.295      4.117
REMARK  Name = ./3D_structures\o58_MMV1593541_3D.pdb
REMARK  5 active torsions:
REMARK  status: ('A' for Active; 'I' for Inactive)
REMARK    1  A    between atoms: N1_1  and  C1_2
REMARK    2  A    between atoms: C3_4  and  C20_26
REMARK    3  A    between atoms: C7_9  and  N3_10
REMARK    4  A    between atoms: N3_10  and  C8_11
REMARK    5  A    between atoms: C10_13  and  C12_18
REMARK                            x       y       z     vdW  Elec       q    Type
REMARK                         _______ _______ _______ _____ _____    ______ ____
ROOT
ATOM      1  C1  UNL     1     153.692 158.907 168.714  0.00  0.00    +0.000 A 
ATOM      2  C2  UNL     1     154.758 158.163 168.242  0.00  0.00    +0.000 A 
ATOM      3  C3  UNL     1     155.134 158.258 166.936  0.00  0.00    +0.000 A 
ATOM      4  N2  UNL     1     154.466 159.088 166.076  0.00  0.00    +0.000 NA
ATOM      5  C4  UNL     1     153.425 159.828 166.496  0.00  0.00    +0.000 A 
ATOM      6  C5  UNL     1     152.743 160.672 165.627  0.00  0.00    +0.000 A 
ATOM      7  C6  UNL     1     151.683 161.427 166.045  0.00  0.00    +0.000 A 
ATOM      8  C7  UNL     1     151.280 161.344 167.387  0.00  0.00    +0.000 A 
ATOM      9  C18 UNL     1     151.966 160.506 168.224  0.00  0.00    +0.000 A 
ATOM     10  C19 UNL     1     153.040 159.735 167.814  0.00  0.00    +0.000 A 
ENDROOT
BRANCH   3  11
ATOM     11  C20 UNL     1     156.252 157.483 166.428  0.00  0.00    +0.000 A 
ATOM     12  C21 UNL     1     157.533 157.811 166.878  0.00  0.00    +0.000 A 
ATOM     13  C22 UNL     1     158.596 157.099 166.417  0.00  0.00    +0.000 A 
ATOM     14  C23 UNL     1     158.450 156.059 165.513  0.00  0.00    +0.000 A 
ATOM     15  F1  UNL     1     159.536 155.366 165.070  0.00  0.00    +0.000 F 
ATOM     16  C24 UNL     1     157.197 155.729 165.064  0.00  0.00    +0.000 A 
ATOM     17  C25 UNL     1     156.115 156.459 165.539  0.00  0.00    +0.000 A 
ENDBRANCH   3  11
BRANCH   1  18
ATOM     18  N1  UNL     1     153.248 158.859 170.048  0.00  0.00    +0.000 N 
ATOM     19  H1  UNL     1     153.344 159.685 170.695  0.00  0.00    +0.000 HD
ATOM     20  H2  UNL     1     152.812 157.961 170.379  0.00  0.00    +0.000 HD
ENDBRANCH   1  18
BRANCH   8  21
ATOM     21  N3  UNL     1     150.193 162.125 167.794  0.00  0.00    +0.000 N 
ATOM     22  H6  UNL     1     149.516 161.690 168.499  0.00  0.00    +0.000 HD
BRANCH  21  23
ATOM     23  C8  UNL     1     149.849 163.436 167.402  0.00  0.00    +0.000 C 
ATOM     24  C9  UNL     1     148.518 163.763 167.081  0.00  0.00    +0.000 C 
ATOM     25  C10 UNL     1     148.124 165.015 166.694  0.00  0.00    +0.000 C 
ATOM     26  N4  UNL     1     149.074 165.978 166.622  0.00  0.00    +0.000 NA
ATOM     27  C11 UNL     1     150.353 165.699 166.921  0.00  0.00    +0.000 C 
ATOM     28  N5  UNL     1     151.306 166.747 166.828  0.00  0.00    +0.000 N 
ATOM     29  N6  UNL     1     150.701 164.461 167.296  0.00  0.00    +0.000 NA
ATOM     30  H8  UNL     1     152.186 166.674 167.417  0.00  0.00    +0.000 HD
ATOM     31  H9  UNL     1     151.201 167.572 166.230  0.00  0.00    +0.000 HD
BRANCH  25  32
ATOM     32  C12 UNL     1     146.749 165.358 166.360  0.00  0.00    +0.000 A 
ATOM     33  C13 UNL     1     146.448 166.629 165.897  0.00  0.00    +0.000 A 
ATOM     34  C14 UNL     1     145.159 166.990 165.572  0.00  0.00    +0.000 A 
ATOM     35  C15 UNL     1     144.105 166.110 165.689  0.00  0.00    +0.000 A 
ATOM     36  C16 UNL     1     144.391 164.844 166.149  0.00  0.00    +0.000 A 
ATOM     37  C17 UNL     1     145.703 164.479 166.479  0.00  0.00    +0.000 A 
ENDBRANCH  25  32
ENDBRANCH  21  23
ENDBRANCH   8  21
TORSDOF 5
ENDMDL
MODEL 6
REMARK VINA RESULT:      -7.5     10.242     13.821
REMARK  Name = ./3D_structures\o58_MMV1593541_3D.pdb
REMARK  5 active torsions:
REMARK  status: ('A' for Active; 'I' for Inactive)
REMARK    1  A    between atoms: N1_1  and  C1_2
REMARK    2  A    between atoms: C3_4  and  C20_26
REMARK    3  A    between atoms: C7_9  and  N3_10
REMARK    4  A    between atoms: N3_10  and  C8_11
REMARK    5  A    between atoms: C10_13  and  C12_18
REMARK                            x       y       z     vdW  Elec       q    Type
REMARK                         _______ _______ _______ _____ _____    ______ ____
ROOT
ATOM      1  C1  UNL     1     158.343 150.411 164.749  0.00  0.00    +0.000 A 
ATOM      2  C2  UNL     1     157.753 149.293 164.189  0.00  0.00    +0.000 A 
ATOM      3  C3  UNL     1     156.997 149.409 163.061  0.00  0.00    +0.000 A 
ATOM      4  N2  UNL     1     156.811 150.629 162.469  0.00  0.00    +0.000 NA
ATOM      5  C4  UNL     1     157.367 151.740 162.982  0.00  0.00    +0.000 A 
ATOM      6  C5  UNL     1     157.181 152.981 162.384  0.00  0.00    +0.000 A 
ATOM      7  C6  UNL     1     157.742 154.116 162.900  0.00  0.00    +0.000 A 
ATOM      8  C7  UNL     1     158.525 154.019 164.060  0.00  0.00    +0.000 A 
ATOM      9  C18 UNL     1     158.693 152.786 164.631  0.00  0.00    +0.000 A 
ATOM     10  C19 UNL     1     158.131 151.630 164.121  0.00  0.00    +0.000 A 
ENDROOT
BRANCH   3  11
ATOM     11  C20 UNL     1     156.374 148.242 162.464  0.00  0.00    +0.000 A 
ATOM     12  C21 UNL     1     155.415 148.450 161.469  0.00  0.00    +0.000 A 
ATOM     13  C22 UNL     1     154.817 147.373 160.894  0.00  0.00    +0.000 A 
ATOM     14  C23 UNL     1     155.126 146.074 161.263  0.00  0.00    +0.000 A 
ATOM     15  F1  UNL     1     154.508 145.016 160.668  0.00  0.00    +0.000 F 
ATOM     16  C24 UNL     1     156.065 145.858 162.240  0.00  0.00    +0.000 A 
ATOM     17  C25 UNL     1     156.674 146.962 162.823  0.00  0.00    +0.000 A 
ENDBRANCH   3  11
BRANCH   1  18
ATOM     18  N1  UNL     1     159.135 150.367 165.910  0.00  0.00    +0.000 N 
ATOM     19  H1  UNL     1     158.738 150.590 166.861  0.00  0.00    +0.000 HD
ATOM     20  H2  UNL     1     160.145 150.101 165.795  0.00  0.00    +0.000 HD
ENDBRANCH   1  18
BRANCH   8  21
ATOM     21  N3  UNL     1     159.090 155.193 164.571  0.00  0.00    +0.000 N 
ATOM     22  H6  UNL     1     160.157 155.247 164.599  0.00  0.00    +0.000 HD
BRANCH  21  23
ATOM     23  C8  UNL     1     158.441 156.343 165.067  0.00  0.00    +0.000 C 
ATOM     24  C9  UNL     1     158.152 156.468 166.439  0.00  0.00    +0.000 C 
ATOM     25  C10 UNL     1     157.526 157.558 166.979  0.00  0.00    +0.000 C 
ATOM     26  N4  UNL     1     157.173 158.560 166.138  0.00  0.00    +0.000 NA
ATOM     27  C11 UNL     1     157.434 158.472 164.824  0.00  0.00    +0.000 C 
ATOM     28  N5  UNL     1     157.042 159.552 163.990  0.00  0.00    +0.000 N 
ATOM     29  N6  UNL     1     158.050 157.388 164.332  0.00  0.00    +0.000 NA
ATOM     30  H8  UNL     1     157.568 159.694 163.079  0.00  0.00    +0.000 HD
ATOM     31  H9  UNL     1     156.285 160.205 164.209  0.00  0.00    +0.000 HD
BRANCH  25  32
ATOM     32  C12 UNL     1     157.224 157.692 168.397  0.00  0.00    +0.000 A 
ATOM     33  C13 UNL     1     158.112 158.349 169.233  0.00  0.00    +0.000 A 
ATOM     34  C14 UNL     1     157.861 158.494 170.579  0.00  0.00    +0.000 A 
ATOM     35  C15 UNL     1     156.716 157.996 171.163  0.00  0.00    +0.000 A 
ATOM     36  C16 UNL     1     155.825 157.341 170.344  0.00  0.00    +0.000 A 
ATOM     37  C17 UNL     1     156.084 157.194 168.974  0.00  0.00    +0.000 A 
ENDBRANCH  25  32
ENDBRANCH  21  23
ENDBRANCH   8  21
TORSDOF 5
ENDMDL
MODEL 7
REMARK VINA RESULT:      -7.5      8.382     13.243
REMARK  Name = ./3D_structures\o58_MMV1593541_3D.pdb
REMARK  5 active torsions:
REMARK  status: ('A' for Active; 'I' for Inactive)
REMARK    1  A    between atoms: N1_1  and  C1_2
REMARK    2  A    between atoms: C3_4  and  C20_26
REMARK    3  A    between atoms: C7_9  and  N3_10
REMARK    4  A    between atoms: N3_10  and  C8_11
REMARK    5  A    between atoms: C10_13  and  C12_18
REMARK                            x       y       z     vdW  Elec       q    Type
REMARK                         _______ _______ _______ _____ _____    ______ ____
ROOT
ATOM      1  C1  UNL     1     157.709 158.479 169.109  0.00  0.00    +0.000 A 
ATOM      2  C2  UNL     1     156.890 158.929 170.128  0.00  0.00    +0.000 A 
ATOM      3  C3  UNL     1     155.544 159.018 169.936  0.00  0.00    +0.000 A 
ATOM      4  N2  UNL     1     154.985 158.664 168.738  0.00  0.00    +0.000 NA
ATOM      5  C4  UNL     1     155.747 158.221 167.723  0.00  0.00    +0.000 A 
ATOM      6  C5  UNL     1     155.185 157.860 166.503  0.00  0.00    +0.000 A 
ATOM      7  C6  UNL     1     155.952 157.410 165.465  0.00  0.00    +0.000 A 
ATOM      8  C7  UNL     1     157.341 157.310 165.642  0.00  0.00    +0.000 A 
ATOM      9  C18 UNL     1     157.872 157.672 166.852  0.00  0.00    +0.000 A 
ATOM     10  C19 UNL     1     157.108 158.130 167.910  0.00  0.00    +0.000 A 
ENDROOT
BRANCH   3  11
ATOM     11  C20 UNL     1     154.673 159.488 170.998  0.00  0.00    +0.000 A 
ATOM     12  C21 UNL     1     153.301 159.548 170.741  0.00  0.00    +0.000 A 
ATOM     13  C22 UNL     1     152.466 159.986 171.720  0.00  0.00    +0.000 A 
ATOM     14  C23 UNL     1     152.930 160.376 172.965  0.00  0.00    +0.000 A 
ATOM     15  F1  UNL     1     152.065 160.811 173.924  0.00  0.00    +0.000 F 
ATOM     16  C24 UNL     1     154.275 160.323 173.229  0.00  0.00    +0.000 A 
ATOM     17  C25 UNL     1     155.124 159.874 172.226  0.00  0.00    +0.000 A 
ENDBRANCH   3  11
BRANCH   1  18
ATOM     18  N1  UNL     1     159.105 158.362 169.235  0.00  0.00    +0.000 N 
ATOM     19  H1  UNL     1     159.765 158.828 168.558  0.00  0.00    +0.000 HD
ATOM     20  H2  UNL     1     159.470 157.789 170.037  0.00  0.00    +0.000 HD
ENDBRANCH   1  18
BRANCH   8  21
ATOM     21  N3  UNL     1     158.108 156.847 164.567  0.00  0.00    +0.000 N 
ATOM     22  H6  UNL     1     158.119 157.447 163.683  0.00  0.00    +0.000 HD
BRANCH  21  23
ATOM     23  C8  UNL     1     158.887 155.674 164.477  0.00  0.00    +0.000 C 
ATOM     24  C9  UNL     1     158.276 154.406 164.477  0.00  0.00    +0.000 C 
ATOM     25  C10 UNL     1     158.978 153.234 164.392  0.00  0.00    +0.000 C 
ATOM     26  N4  UNL     1     160.328 153.316 164.304  0.00  0.00    +0.000 NA
ATOM     27  C11 UNL     1     160.941 154.510 164.302  0.00  0.00    +0.000 C 
ATOM     28  N5  UNL     1     162.358 154.535 164.207  0.00  0.00    +0.000 N 
ATOM     29  N6  UNL     1     160.220 155.636 164.386  0.00  0.00    +0.000 NA
ATOM     30  H8  UNL     1     162.815 155.406 163.810  0.00  0.00    +0.000 HD
ATOM     31  H9  UNL     1     162.969 153.766 164.497  0.00  0.00    +0.000 HD
BRANCH  25  32
ATOM     32  C12 UNL     1     158.352 151.920 164.392  0.00  0.00    +0.000 A 
ATOM     33  C13 UNL     1     157.105 151.749 163.812  0.00  0.00    +0.000 A 
ATOM     34  C14 UNL     1     156.482 150.522 163.794  0.00  0.00    +0.000 A 
ATOM     35  C15 UNL     1     157.063 149.402 164.349  0.00  0.00    +0.000 A 
ATOM     36  C16 UNL     1     158.302 149.558 164.929  0.00  0.00    +0.000 A 
ATOM     37  C17 UNL     1     158.934 150.809 164.946  0.00  0.00    +0.000 A 
ENDBRANCH  25  32
ENDBRANCH  21  23
ENDBRANCH   8  21
TORSDOF 5
ENDMDL
MODEL 8
REMARK VINA RESULT:      -7.5      3.140      5.802
REMARK  Name = ./3D_structures\o58_MMV1593541_3D.pdb
REMARK  5 active torsions:
REMARK  status: ('A' for Active; 'I' for Inactive)
REMARK    1  A    between atoms: N1_1  and  C1_2
REMARK    2  A    between atoms: C3_4  and  C20_26
REMARK    3  A    between atoms: C7_9  and  N3_10
REMARK    4  A    between atoms: N3_10  and  C8_11
REMARK    5  A    between atoms: C10_13  and  C12_18
REMARK                            x       y       z     vdW  Elec       q    Type
REMARK                         _______ _______ _______ _____ _____    ______ ____
ROOT
ATOM      1  C1  UNL     1     154.519 159.701 166.060  0.00  0.00    +0.000 A 
ATOM      2  C2  UNL     1     155.589 158.958 165.596  0.00  0.00    +0.000 A 
ATOM      3  C3  UNL     1     155.978 157.832 166.258  0.00  0.00    +0.000 A 
ATOM      4  N2  UNL     1     155.319 157.422 167.385  0.00  0.00    +0.000 NA
ATOM      5  C4  UNL     1     154.274 158.117 167.868  0.00  0.00    +0.000 A 
ATOM      6  C5  UNL     1     153.602 157.705 169.013  0.00  0.00    +0.000 A 
ATOM      7  C6  UNL     1     152.539 158.406 169.511  0.00  0.00    +0.000 A 
ATOM      8  C7  UNL     1     152.121 159.568 168.844  0.00  0.00    +0.000 A 
ATOM      9  C18 UNL     1     152.799 159.954 167.720  0.00  0.00    +0.000 A 
ATOM     10  C19 UNL     1     153.876 159.255 167.205  0.00  0.00    +0.000 A 
ENDROOT
BRANCH   3  11
ATOM     11  C20 UNL     1     157.099 157.043 165.781  0.00  0.00    +0.000 A 
ATOM     12  C21 UNL     1     156.823 155.821 165.164  0.00  0.00    +0.000 A 
ATOM     13  C22 UNL     1     157.857 155.064 164.709  0.00  0.00    +0.000 A 
ATOM     14  C23 UNL     1     159.177 155.464 164.839  0.00  0.00    +0.000 A 
ATOM     15  F1  UNL     1     160.189 154.681 164.372  0.00  0.00    +0.000 F 
ATOM     16  C24 UNL     1     159.460 156.662 165.444  0.00  0.00    +0.000 A 
ATOM     17  C25 UNL     1     158.400 157.432 165.906  0.00  0.00    +0.000 A 
ENDBRANCH   3  11
BRANCH   1  18
ATOM     18  N1  UNL     1     154.062 160.873 165.430  0.00  0.00    +0.000 N 
ATOM     19  H1  UNL     1     154.694 161.702 165.274  0.00  0.00    +0.000 HD
ATOM     20  H2  UNL     1     153.058 160.892 165.118  0.00  0.00    +0.000 HD
ENDBRANCH   1  18
BRANCH   8  21
ATOM     21  N3  UNL     1     151.031 160.270 169.371  0.00  0.00    +0.000 N 
ATOM     22  H6  UNL     1     151.101 160.584 170.390  0.00  0.00    +0.000 HD
BRANCH  21  23
ATOM     23  C8  UNL     1     149.823 160.633 168.738  0.00  0.00    +0.000 C 
ATOM     24  C9  UNL     1     149.632 161.941 168.254  0.00  0.00    +0.000 C 
ATOM     25  C10 UNL     1     148.485 162.352 167.633  0.00  0.00    +0.000 C 
ATOM     26  N4  UNL     1     147.492 161.443 167.483  0.00  0.00    +0.000 NA
ATOM     27  C11 UNL     1     147.642 160.187 167.933  0.00  0.00    +0.000 C 
ATOM     28  N5  UNL     1     146.568 159.277 167.749  0.00  0.00    +0.000 N 
ATOM     29  N6  UNL     1     148.781 159.822 168.537  0.00  0.00    +0.000 NA
ATOM     30  H8  UNL     1     146.793 158.241 167.718  0.00  0.00    +0.000 HD
ATOM     31  H9  UNL     1     145.588 159.554 167.641  0.00  0.00    +0.000 HD
BRANCH  25  32
ATOM     32  C12 UNL     1     148.282 163.704 167.131  0.00  0.00    +0.000 A 
ATOM     33  C13 UNL     1     147.009 164.127 166.784  0.00  0.00    +0.000 A 
ATOM     34  C14 UNL     1     146.778 165.398 166.305  0.00  0.00    +0.000 A 
ATOM     35  C15 UNL     1     147.797 166.312 166.147  0.00  0.00    +0.000 A 
ATOM     36  C16 UNL     1     149.067 165.903 166.487  0.00  0.00    +0.000 A 
ATOM     37  C17 UNL     1     149.299 164.610 166.974  0.00  0.00    +0.000 A 
ENDBRANCH  25  32
ENDBRANCH  21  23
ENDBRANCH   8  21
TORSDOF 5
ENDMDL
MODEL 9
REMARK VINA RESULT:      -7.5      2.936      4.864
REMARK  Name = ./3D_structures\o58_MMV1593541_3D.pdb
REMARK  5 active torsions:
REMARK  status: ('A' for Active; 'I' for Inactive)
REMARK    1  A    between atoms: N1_1  and  C1_2
REMARK    2  A    between atoms: C3_4  and  C20_26
REMARK    3  A    between atoms: C7_9  and  N3_10
REMARK    4  A    between atoms: N3_10  and  C8_11
REMARK    5  A    between atoms: C10_13  and  C12_18
REMARK                            x       y       z     vdW  Elec       q    Type
REMARK                         _______ _______ _______ _____ _____    ______ ____
ROOT
ATOM      1  C1  UNL     1     153.638 157.912 168.772  0.00  0.00    +0.000 A 
ATOM      2  C2  UNL     1     154.773 157.355 168.210  0.00  0.00    +0.000 A 
ATOM      3  C3  UNL     1     155.433 158.006 167.212  0.00  0.00    +0.000 A 
ATOM      4  N2  UNL     1     154.987 159.216 166.754  0.00  0.00    +0.000 NA
ATOM      5  C4  UNL     1     153.889 159.791 167.274  0.00  0.00    +0.000 A 
ATOM      6  C5  UNL     1     153.430 161.020 166.812  0.00  0.00    +0.000 A 
ATOM      7  C6  UNL     1     152.314 161.612 167.335  0.00  0.00    +0.000 A 
ATOM      8  C7  UNL     1     151.619 160.957 168.364  0.00  0.00    +0.000 A 
ATOM      9  C18 UNL     1     152.089 159.748 168.802  0.00  0.00    +0.000 A 
ATOM     10  C19 UNL     1     153.216 159.138 168.282  0.00  0.00    +0.000 A 
ENDROOT
BRANCH   3  11
ATOM     11  C20 UNL     1     156.625 157.433 166.615  0.00  0.00    +0.000 A 
ATOM     12  C21 UNL     1     156.466 156.344 165.754  0.00  0.00    +0.000 A 
ATOM     13  C22 UNL     1     157.568 155.789 165.182  0.00  0.00    +0.000 A 
ATOM     14  C23 UNL     1     158.845 156.267 165.426  0.00  0.00    +0.000 A 
ATOM     15  F1  UNL     1     159.928 155.688 164.837  0.00  0.00    +0.000 F 
ATOM     16  C24 UNL     1     159.013 157.335 166.270  0.00  0.00    +0.000 A 
ATOM     17  C25 UNL     1     157.885 157.899 166.851  0.00  0.00    +0.000 A 
ENDBRANCH   3  11
BRANCH   1  18
ATOM     18  N1  UNL     1     152.906 157.297 169.803  0.00  0.00    +0.000 N 
ATOM     19  H1  UNL     1     153.380 156.766 170.580  0.00  0.00    +0.000 HD
ATOM     20  H2  UNL     1     151.859 157.387 169.771  0.00  0.00    +0.000 HD
ENDBRANCH   1  18
BRANCH   8  21
ATOM     21  N3  UNL     1     150.479 161.580 168.884  0.00  0.00    +0.000 N 
ATOM     22  H6  UNL     1     150.577 162.057 169.836  0.00  0.00    +0.000 HD
BRANCH  21  23
ATOM     23  C8  UNL     1     149.188 161.673 168.324  0.00  0.00    +0.000 C 
ATOM     24  C9  UNL     1     148.720 162.892 167.799  0.00  0.00    +0.000 C 
ATOM     25  C10 UNL     1     147.479 163.044 167.243  0.00  0.00    +0.000 C 
ATOM     26  N4  UNL     1     146.672 161.956 167.203  0.00  0.00    +0.000 NA
ATOM     27  C11 UNL     1     147.088 160.779 167.695  0.00  0.00    +0.000 C 
ATOM     28  N5  UNL     1     146.200 159.672 167.626  0.00  0.00    +0.000 N 
ATOM     29  N6  UNL     1     148.310 160.669 168.232  0.00  0.00    +0.000 NA
ATOM     30  H8  UNL     1     146.618 158.698 167.624  0.00  0.00    +0.000 HD
ATOM     31  H9  UNL     1     145.180 159.753 167.576  0.00  0.00    +0.000 HD
BRANCH  25  32
ATOM     32  C12 UNL     1     146.989 164.303 166.700  0.00  0.00    +0.000 A 
ATOM     33  C13 UNL     1     145.637 164.463 166.441  0.00  0.00    +0.000 A 
ATOM     34  C14 UNL     1     145.137 165.639 165.927  0.00  0.00    +0.000 A 
ATOM     35  C15 UNL     1     145.952 166.714 165.643  0.00  0.00    +0.000 A 
ATOM     36  C16 UNL     1     147.298 166.567 165.896  0.00  0.00    +0.000 A 
ATOM     37  C17 UNL     1     147.803 165.369 166.419  0.00  0.00    +0.000 A 
ENDBRANCH  25  32
ENDBRANCH  21  23
ENDBRANCH   8  21
TORSDOF 5
ENDMDL
