MODEL 1
REMARK VINA RESULT:      -7.6      0.000      0.000
REMARK  Name = ./3D_structures\o59_MMV1593537_3D.pdb
REMARK  3 active torsions:
REMARK  status: ('A' for Active; 'I' for Inactive)
REMARK    1  A    between atoms: C4_5  and  C7_8
REMARK    2  A    between atoms: C8_10  and  C16_20
REMARK    3  A    between atoms: C9_12  and  C10_13
REMARK                            x       y       z     vdW  Elec       q    Type
REMARK                         _______ _______ _______ _____ _____    ______ ____
ROOT
ATOM      1  C7  UNL     1     157.398 156.929 166.894  0.00  0.00    +0.000 A 
ATOM      2  N1  UNL     1     158.228 155.968 166.482  0.00  0.00    +0.000 NA
ATOM      3  C8  UNL     1     158.216 155.853 165.112  0.00  0.00    +0.000 A 
ATOM      4  N2  UNL     1     157.365 156.765 164.713  0.00  0.00    +0.000 N 
ATOM      5  C9  UNL     1     156.831 157.458 165.770  0.00  0.00    +0.000 A 
ATOM      6  H5  UNL     1     157.074 157.007 163.748  0.00  0.00    +0.000 HD
ENDROOT
BRANCH   3   7
ATOM      7  C16 UNL     1     159.030 154.864 164.420  0.00  0.00    +0.000 A 
ATOM      8  C17 UNL     1     160.419 154.941 164.262  0.00  0.00    +0.000 A 
ATOM      9  N3  UNL     1     160.820 153.865 163.590  0.00  0.00    +0.000 N 
ATOM     10  C18 UNL     1     159.761 153.077 163.295  0.00  0.00    +0.000 A 
ATOM     11  C19 UNL     1     159.650 151.873 162.628  0.00  0.00    +0.000 A 
ATOM     12  C20 UNL     1     158.433 151.258 162.458  0.00  0.00    +0.000 A 
ATOM     13  C21 UNL     1     157.299 151.846 162.959  0.00  0.00    +0.000 A 
ATOM     14 BR1  UNL     1     155.573 151.018 162.741  0.00  0.00    +0.000 Br
ATOM     15  C22 UNL     1     157.439 153.054 163.624  0.00  0.00    +0.000 A 
ATOM     16  C23 UNL     1     158.636 153.705 163.817  0.00  0.00    +0.000 A 
ATOM     17  H11 UNL     1     161.810 153.646 163.324  0.00  0.00    +0.000 HD
ENDBRANCH   3   7
BRANCH   1  22
ATOM     18  F1  UNL     1     156.521 158.488 172.220  0.00  0.00    +0.000 F 
ATOM     19  C1  UNL     1     156.744 158.116 170.930  0.00  0.00    +0.000 A 
ATOM     20  C2  UNL     1     157.836 158.570 170.220  0.00  0.00    +0.000 A 
ATOM     21  C3  UNL     1     158.034 158.171 168.898  0.00  0.00    +0.000 A 
ATOM     22  C4  UNL     1     157.161 157.322 168.270  0.00  0.00    +0.000 A 
ATOM     23  C5  UNL     1     156.070 156.860 168.959  0.00  0.00    +0.000 A 
ATOM     24  C6  UNL     1     155.879 157.262 170.273  0.00  0.00    +0.000 A 
ENDBRANCH   1  22
BRANCH   5  25
ATOM     25  C10 UNL     1     155.853 158.528 165.705  0.00  0.00    +0.000 A 
ATOM     26  C11 UNL     1     154.556 158.415 166.155  0.00  0.00    +0.000 A 
ATOM     27  C12 UNL     1     153.646 159.467 166.087  0.00  0.00    +0.000 A 
ATOM     28  C13 UNL     1     154.028 160.688 165.551  0.00  0.00    +0.000 A 
ATOM     29  F2  UNL     1     153.106 161.692 165.505  0.00  0.00    +0.000 F 
ATOM     30  C14 UNL     1     155.325 160.824 165.092  0.00  0.00    +0.000 A 
ATOM     31  C15 UNL     1     156.214 159.771 165.167  0.00  0.00    +0.000 A 
ENDBRANCH   5  25
TORSDOF 3
ENDMDL
MODEL 2
REMARK VINA RESULT:      -7.5      0.711      3.995
REMARK  Name = ./3D_structures\o59_MMV1593537_3D.pdb
REMARK  3 active torsions:
REMARK  status: ('A' for Active; 'I' for Inactive)
REMARK    1  A    between atoms: C4_5  and  C7_8
REMARK    2  A    between atoms: C8_10  and  C16_20
REMARK    3  A    between atoms: C9_12  and  C10_13
REMARK                            x       y       z     vdW  Elec       q    Type
REMARK                         _______ _______ _______ _____ _____    ______ ____
ROOT
ATOM      1  C7  UNL     1     156.776 157.636 165.657  0.00  0.00    +0.000 A 
ATOM      2  N1  UNL     1     157.281 157.036 164.577  0.00  0.00    +0.000 NA
ATOM      3  C8  UNL     1     158.181 156.057 164.926  0.00  0.00    +0.000 A 
ATOM      4  N2  UNL     1     158.201 156.081 166.235  0.00  0.00    +0.000 N 
ATOM      5  C9  UNL     1     157.354 157.035 166.739  0.00  0.00    +0.000 A 
ATOM      6  H5  UNL     1     158.749 155.492 166.890  0.00  0.00    +0.000 HD
ENDROOT
BRANCH   3   7
ATOM      7  C16 UNL     1     158.880 155.267 163.922  0.00  0.00    +0.000 A 
ATOM      8  C17 UNL     1     159.860 155.764 163.055  0.00  0.00    +0.000 A 
ATOM      9  N3  UNL     1     160.281 154.763 162.287  0.00  0.00    +0.000 N 
ATOM     10  C18 UNL     1     159.624 153.624 162.605  0.00  0.00    +0.000 A 
ATOM     11  C19 UNL     1     159.697 152.335 162.112  0.00  0.00    +0.000 A 
ATOM     12  C20 UNL     1     158.909 151.330 162.617  0.00  0.00    +0.000 A 
ATOM     13  C21 UNL     1     158.027 151.603 163.632  0.00  0.00    +0.000 A 
ATOM     14 BR1  UNL     1     156.902 150.223 164.367  0.00  0.00    +0.000 Br
ATOM     15  C22 UNL     1     157.974 152.904 164.108  0.00  0.00    +0.000 A 
ATOM     16  C23 UNL     1     158.744 153.940 163.633  0.00  0.00    +0.000 A 
ATOM     17  H11 UNL     1     161.015 154.831 161.542  0.00  0.00    +0.000 HD
ENDBRANCH   3   7
BRANCH   1  22
ATOM     18  F1  UNL     1     153.041 161.832 165.647  0.00  0.00    +0.000 F 
ATOM     19  C1  UNL     1     153.955 160.824 165.646  0.00  0.00    +0.000 A 
ATOM     20  C2  UNL     1     155.258 161.022 165.240  0.00  0.00    +0.000 A 
ATOM     21  C3  UNL     1     156.169 159.966 165.251  0.00  0.00    +0.000 A 
ATOM     22  C4  UNL     1     155.802 158.711 165.662  0.00  0.00    +0.000 A 
ATOM     23  C5  UNL     1     154.511 158.494 166.068  0.00  0.00    +0.000 A 
ATOM     24  C6  UNL     1     153.610 159.550 166.054  0.00  0.00    +0.000 A 
ENDBRANCH   1  22
BRANCH   5  25
ATOM     25  C10 UNL     1     157.128 157.348 168.137  0.00  0.00    +0.000 A 
ATOM     26  C11 UNL     1     156.049 156.894 168.865  0.00  0.00    +0.000 A 
ATOM     27  C12 UNL     1     155.869 157.206 170.210  0.00  0.00    +0.000 A 
ATOM     28  C13 UNL     1     156.792 158.001 170.873  0.00  0.00    +0.000 A 
ATOM     29  F2  UNL     1     156.578 158.281 172.190  0.00  0.00    +0.000 F 
ATOM     30  C14 UNL     1     157.881 158.470 170.163  0.00  0.00    +0.000 A 
ATOM     31  C15 UNL     1     158.045 158.151 168.830  0.00  0.00    +0.000 A 
ENDBRANCH   5  25
TORSDOF 3
ENDMDL
MODEL 3
REMARK VINA RESULT:      -7.5      1.966      2.648
REMARK  Name = ./3D_structures\o59_MMV1593537_3D.pdb
REMARK  3 active torsions:
REMARK  status: ('A' for Active; 'I' for Inactive)
REMARK    1  A    between atoms: C4_5  and  C7_8
REMARK    2  A    between atoms: C8_10  and  C16_20
REMARK    3  A    between atoms: C9_12  and  C10_13
REMARK                            x       y       z     vdW  Elec       q    Type
REMARK                         _______ _______ _______ _____ _____    ______ ____
ROOT
ATOM      1  C7  UNL     1     157.219 156.832 166.853  0.00  0.00    +0.000 A 
ATOM      2  N1  UNL     1     157.911 155.770 166.434  0.00  0.00    +0.000 NA
ATOM      3  C8  UNL     1     157.756 155.575 165.082  0.00  0.00    +0.000 A 
ATOM      4  N2  UNL     1     156.960 156.542 164.700  0.00  0.00    +0.000 N 
ATOM      5  C9  UNL     1     156.598 157.347 165.750  0.00  0.00    +0.000 A 
ATOM      6  H5  UNL     1     156.601 156.754 163.750  0.00  0.00    +0.000 HD
ENDROOT
BRANCH   3   7
ATOM      7  C16 UNL     1     158.402 154.469 164.390  0.00  0.00    +0.000 A 
ATOM      8  C17 UNL     1     157.727 153.406 163.778  0.00  0.00    +0.000 A 
ATOM      9  N3  UNL     1     158.634 152.594 163.241  0.00  0.00    +0.000 N 
ATOM     10  C18 UNL     1     159.879 153.069 163.469  0.00  0.00    +0.000 A 
ATOM     11  C19 UNL     1     161.134 152.605 163.123  0.00  0.00    +0.000 A 
ATOM     12  C20 UNL     1     162.273 153.288 163.477  0.00  0.00    +0.000 A 
ATOM     13  C21 UNL     1     162.170 154.455 164.190  0.00  0.00    +0.000 A 
ATOM     14 BR1  UNL     1     163.742 155.442 164.709  0.00  0.00    +0.000 Br
ATOM     15  C22 UNL     1     160.900 154.898 164.524  0.00  0.00    +0.000 A 
ATOM     16  C23 UNL     1     159.734 154.248 164.190  0.00  0.00    +0.000 A 
ATOM     17  H11 UNL     1     158.428 151.712 162.714  0.00  0.00    +0.000 HD
ENDBRANCH   3   7
BRANCH   1  22
ATOM     18  F1  UNL     1     156.923 158.719 172.136  0.00  0.00    +0.000 F 
ATOM     19  C1  UNL     1     156.983 158.256 170.857  0.00  0.00    +0.000 A 
ATOM     20  C2  UNL     1     156.028 157.403 170.346  0.00  0.00    +0.000 A 
ATOM     21  C3  UNL     1     156.121 156.947 169.031  0.00  0.00    +0.000 A 
ATOM     22  C4  UNL     1     157.153 157.328 168.214  0.00  0.00    +0.000 A 
ATOM     23  C5  UNL     1     158.113 158.175 168.704  0.00  0.00    +0.000 A 
ATOM     24  C6  UNL     1     158.013 158.625 170.014  0.00  0.00    +0.000 A 
ENDBRANCH   1  22
BRANCH   5  25
ATOM     25  C10 UNL     1     155.724 158.504 165.700  0.00  0.00    +0.000 A 
ATOM     26  C11 UNL     1     154.433 158.517 166.182  0.00  0.00    +0.000 A 
ATOM     27  C12 UNL     1     153.626 159.649 166.126  0.00  0.00    +0.000 A 
ATOM     28  C13 UNL     1     154.108 160.826 165.572  0.00  0.00    +0.000 A 
ATOM     29  F2  UNL     1     153.284 161.912 165.539  0.00  0.00    +0.000 F 
ATOM     30  C14 UNL     1     155.400 160.836 165.081  0.00  0.00    +0.000 A 
ATOM     31  C15 UNL     1     156.187 159.705 165.143  0.00  0.00    +0.000 A 
ENDBRANCH   5  25
TORSDOF 3
ENDMDL
MODEL 4
REMARK VINA RESULT:      -7.4      2.114      4.566
REMARK  Name = ./3D_structures\o59_MMV1593537_3D.pdb
REMARK  3 active torsions:
REMARK  status: ('A' for Active; 'I' for Inactive)
REMARK    1  A    between atoms: C4_5  and  C7_8
REMARK    2  A    between atoms: C8_10  and  C16_20
REMARK    3  A    between atoms: C9_12  and  C10_13
REMARK                            x       y       z     vdW  Elec       q    Type
REMARK                         _______ _______ _______ _____ _____    ______ ____
ROOT
ATOM      1  C7  UNL     1     156.538 157.363 165.599  0.00  0.00    +0.000 A 
ATOM      2  N1  UNL     1     156.770 156.576 164.545  0.00  0.00    +0.000 NA
ATOM      3  C8  UNL     1     157.623 155.548 164.869  0.00  0.00    +0.000 A 
ATOM      4  N2  UNL     1     157.894 155.733 166.136  0.00  0.00    +0.000 N 
ATOM      5  C9  UNL     1     157.252 156.837 166.637  0.00  0.00    +0.000 A 
ATOM      6  H5  UNL     1     158.499 155.170 166.763  0.00  0.00    +0.000 HD
ENDROOT
BRANCH   3   7
ATOM      7  C16 UNL     1     158.040 154.561 163.883  0.00  0.00    +0.000 A 
ATOM      8  C17 UNL     1     157.976 153.175 164.064  0.00  0.00    +0.000 A 
ATOM      9  N3  UNL     1     158.430 152.591 162.959  0.00  0.00    +0.000 N 
ATOM     10  C18 UNL     1     158.793 153.527 162.052  0.00  0.00    +0.000 A 
ATOM     11  C19 UNL     1     159.311 153.438 160.775  0.00  0.00    +0.000 A 
ATOM     12  C20 UNL     1     159.600 154.562 160.040  0.00  0.00    +0.000 A 
ATOM     13  C21 UNL     1     159.372 155.803 160.578  0.00  0.00    +0.000 A 
ATOM     14 BR1  UNL     1     159.764 157.405 159.582  0.00  0.00    +0.000 Br
ATOM     15  C22 UNL     1     158.852 155.864 161.862  0.00  0.00    +0.000 A 
ATOM     16  C23 UNL     1     158.548 154.765 162.633  0.00  0.00    +0.000 A 
ATOM     17  H11 UNL     1     158.500 151.558 162.798  0.00  0.00    +0.000 HD
ENDBRANCH   3   7
BRANCH   1  22
ATOM     18  F1  UNL     1     153.285 161.943 165.642  0.00  0.00    +0.000 F 
ATOM     19  C1  UNL     1     154.083 160.840 165.627  0.00  0.00    +0.000 A 
ATOM     20  C2  UNL     1     155.360 160.872 165.108  0.00  0.00    +0.000 A 
ATOM     21  C3  UNL     1     156.150 159.723 165.107  0.00  0.00    +0.000 A 
ATOM     22  C4  UNL     1     155.688 158.538 165.618  0.00  0.00    +0.000 A 
ATOM     23  C5  UNL     1     154.422 158.487 166.139  0.00  0.00    +0.000 A 
ATOM     24  C6  UNL     1     153.641 159.634 166.135  0.00  0.00    +0.000 A 
ENDBRANCH   1  22
BRANCH   5  25
ATOM     25  C10 UNL     1     157.327 157.348 167.994  0.00  0.00    +0.000 A 
ATOM     26  C11 UNL     1     156.378 157.105 168.963  0.00  0.00    +0.000 A 
ATOM     27  C12 UNL     1     156.487 157.602 170.258  0.00  0.00    +0.000 A 
ATOM     28  C13 UNL     1     157.581 158.375 170.621  0.00  0.00    +0.000 A 
ATOM     29  F2  UNL     1     157.649 158.841 171.901  0.00  0.00    +0.000 F 
ATOM     30  C14 UNL     1     158.545 158.633 169.665  0.00  0.00    +0.000 A 
ATOM     31  C15 UNL     1     158.421 158.133 168.385  0.00  0.00    +0.000 A 
ENDBRANCH   5  25
TORSDOF 3
ENDMDL
MODEL 5
REMARK VINA RESULT:      -7.2      2.001      4.716
REMARK  Name = ./3D_structures\o59_MMV1593537_3D.pdb
REMARK  3 active torsions:
REMARK  status: ('A' for Active; 'I' for Inactive)
REMARK    1  A    between atoms: C4_5  and  C7_8
REMARK    2  A    between atoms: C8_10  and  C16_20
REMARK    3  A    between atoms: C9_12  and  C10_13
REMARK                            x       y       z     vdW  Elec       q    Type
REMARK                         _______ _______ _______ _____ _____    ______ ____
ROOT
ATOM      1  C7  UNL     1     156.662 157.502 165.705  0.00  0.00    +0.000 A 
ATOM      2  N1  UNL     1     157.059 156.795 164.644  0.00  0.00    +0.000 NA
ATOM      3  C8  UNL     1     157.893 155.766 165.013  0.00  0.00    +0.000 A 
ATOM      4  N2  UNL     1     157.984 155.870 166.315  0.00  0.00    +0.000 N 
ATOM      5  C9  UNL     1     157.246 156.922 166.795  0.00  0.00    +0.000 A 
ATOM      6  H5  UNL     1     158.516 155.278 166.980  0.00  0.00    +0.000 HD
ENDROOT
BRANCH   3   7
ATOM      7  C16 UNL     1     158.471 154.860 164.032  0.00  0.00    +0.000 A 
ATOM      8  C17 UNL     1     157.744 154.179 163.047  0.00  0.00    +0.000 A 
ATOM      9  N3  UNL     1     158.597 153.453 162.330  0.00  0.00    +0.000 N 
ATOM     10  C18 UNL     1     159.857 153.620 162.793  0.00  0.00    +0.000 A 
ATOM     11  C19 UNL     1     161.074 153.100 162.399  0.00  0.00    +0.000 A 
ATOM     12  C20 UNL     1     162.240 153.435 163.044  0.00  0.00    +0.000 A 
ATOM     13  C21 UNL     1     162.203 154.305 164.105  0.00  0.00    +0.000 A 
ATOM     14 BR1  UNL     1     163.813 154.800 165.039  0.00  0.00    +0.000 Br
ATOM     15  C22 UNL     1     160.968 154.813 164.480  0.00  0.00    +0.000 A 
ATOM     16  C23 UNL     1     159.778 154.505 163.863  0.00  0.00    +0.000 A 
ATOM     17  H11 UNL     1     158.345 152.838 161.520  0.00  0.00    +0.000 HD
ENDBRANCH   3   7
BRANCH   1  22
ATOM     18  F1  UNL     1     153.210 161.934 165.654  0.00  0.00    +0.000 F 
ATOM     19  C1  UNL     1     154.037 160.852 165.669  0.00  0.00    +0.000 A 
ATOM     20  C2  UNL     1     153.608 159.614 166.099  0.00  0.00    +0.000 A 
ATOM     21  C3  UNL     1     154.482 158.527 166.104  0.00  0.00    +0.000 A 
ATOM     22  C4  UNL     1     155.781 158.653 165.684  0.00  0.00    +0.000 A 
ATOM     23  C5  UNL     1     156.226 159.876 165.254  0.00  0.00    +0.000 A 
ATOM     24  C6  UNL     1     155.350 160.953 165.253  0.00  0.00    +0.000 A 
ENDBRANCH   1  22
BRANCH   5  25
ATOM     25  C10 UNL     1     157.120 157.339 168.179  0.00  0.00    +0.000 A 
ATOM     26  C11 UNL     1     156.071 156.985 168.999  0.00  0.00    +0.000 A 
ATOM     27  C12 UNL     1     155.988 157.395 170.326  0.00  0.00    +0.000 A 
ATOM     28  C13 UNL     1     156.983 158.190 170.876  0.00  0.00    +0.000 A 
ATOM     29  F2  UNL     1     156.863 158.568 172.181  0.00  0.00    +0.000 F 
ATOM     30  C14 UNL     1     158.045 158.558 170.072  0.00  0.00    +0.000 A 
ATOM     31  C15 UNL     1     158.112 158.144 168.758  0.00  0.00    +0.000 A 
ENDBRANCH   5  25
TORSDOF 3
ENDMDL
MODEL 6
REMARK VINA RESULT:      -7.1      1.908      2.153
REMARK  Name = ./3D_structures\o59_MMV1593537_3D.pdb
REMARK  3 active torsions:
REMARK  status: ('A' for Active; 'I' for Inactive)
REMARK    1  A    between atoms: C4_5  and  C7_8
REMARK    2  A    between atoms: C8_10  and  C16_20
REMARK    3  A    between atoms: C9_12  and  C10_13
REMARK                            x       y       z     vdW  Elec       q    Type
REMARK                         _______ _______ _______ _____ _____    ______ ____
ROOT
ATOM      1  C7  UNL     1     157.294 156.900 166.715  0.00  0.00    +0.000 A 
ATOM      2  N1  UNL     1     158.012 155.872 166.254  0.00  0.00    +0.000 NA
ATOM      3  C8  UNL     1     157.851 155.720 164.898  0.00  0.00    +0.000 A 
ATOM      4  N2  UNL     1     157.026 156.677 164.555  0.00  0.00    +0.000 N 
ATOM      5  C9  UNL     1     156.650 157.435 165.635  0.00  0.00    +0.000 A 
ATOM      6  H5  UNL     1     156.653 156.912 163.616  0.00  0.00    +0.000 HD
ENDROOT
BRANCH   3   7
ATOM      7  C16 UNL     1     158.522 154.657 164.163  0.00  0.00    +0.000 A 
ATOM      8  C17 UNL     1     158.723 153.358 164.642  0.00  0.00    +0.000 A 
ATOM      9  N3  UNL     1     159.358 152.662 163.703  0.00  0.00    +0.000 N 
ATOM     10  C18 UNL     1     159.587 153.441 162.621  0.00  0.00    +0.000 A 
ATOM     11  C19 UNL     1     160.198 153.196 161.406  0.00  0.00    +0.000 A 
ATOM     12  C20 UNL     1     160.306 154.175 160.449  0.00  0.00    +0.000 A 
ATOM     13  C21 UNL     1     159.800 155.426 160.696  0.00  0.00    +0.000 A 
ATOM     14 BR1  UNL     1     159.932 156.829 159.382  0.00  0.00    +0.000 Br
ATOM     15  C22 UNL     1     159.193 155.646 161.923  0.00  0.00    +0.000 A 
ATOM     16  C23 UNL     1     159.062 154.695 162.910  0.00  0.00    +0.000 A 
ATOM     17  H11 UNL     1     159.642 151.656 163.775  0.00  0.00    +0.000 HD
ENDBRANCH   3   7
BRANCH   1  22
ATOM     18  F1  UNL     1     157.075 158.665 172.043  0.00  0.00    +0.000 F 
ATOM     19  C1  UNL     1     157.139 158.242 170.751  0.00  0.00    +0.000 A 
ATOM     20  C2  UNL     1     158.188 158.586 169.924  0.00  0.00    +0.000 A 
ATOM     21  C3  UNL     1     158.222 158.137 168.604  0.00  0.00    +0.000 A 
ATOM     22  C4  UNL     1     157.226 157.347 168.093  0.00  0.00    +0.000 A 
ATOM     23  C5  UNL     1     156.175 156.995 168.899  0.00  0.00    +0.000 A 
ATOM     24  C6  UNL     1     156.147 157.446 170.211  0.00  0.00    +0.000 A 
ENDBRANCH   1  22
BRANCH   5  25
ATOM     25  C10 UNL     1     155.744 158.568 165.631  0.00  0.00    +0.000 A 
ATOM     26  C11 UNL     1     154.467 158.536 166.147  0.00  0.00    +0.000 A 
ATOM     27  C12 UNL     1     153.628 159.646 166.136  0.00  0.00    +0.000 A 
ATOM     28  C13 UNL     1     154.062 160.847 165.593  0.00  0.00    +0.000 A 
ATOM     29  F2  UNL     1     153.209 161.910 165.605  0.00  0.00    +0.000 F 
ATOM     30  C14 UNL     1     155.340 160.902 165.069  0.00  0.00    +0.000 A 
ATOM     31  C15 UNL     1     156.159 159.792 165.088  0.00  0.00    +0.000 A 
ENDBRANCH   5  25
TORSDOF 3
ENDMDL
MODEL 7
REMARK VINA RESULT:      -7.1      4.180      6.431
REMARK  Name = ./3D_structures\o59_MMV1593537_3D.pdb
REMARK  3 active torsions:
REMARK  status: ('A' for Active; 'I' for Inactive)
REMARK    1  A    between atoms: C4_5  and  C7_8
REMARK    2  A    between atoms: C8_10  and  C16_20
REMARK    3  A    between atoms: C9_12  and  C10_13
REMARK                            x       y       z     vdW  Elec       q    Type
REMARK                         _______ _______ _______ _____ _____    ______ ____
ROOT
ATOM      1  C7  UNL     1     158.289 158.555 167.000  0.00  0.00    +0.000 A 
ATOM      2  N1  UNL     1     159.246 158.122 166.177  0.00  0.00    +0.000 NA
ATOM      3  C8  UNL     1     160.442 157.972 166.838  0.00  0.00    +0.000 A 
ATOM      4  N2  UNL     1     160.181 158.322 168.073  0.00  0.00    +0.000 N 
ATOM      5  C9  UNL     1     158.868 158.690 168.229  0.00  0.00    +0.000 A 
ATOM      6  H5  UNL     1     160.816 158.344 168.892  0.00  0.00    +0.000 HD
ENDROOT
BRANCH   3   7
ATOM      7  C16 UNL     1     161.645 157.524 166.152  0.00  0.00    +0.000 A 
ATOM      8  C17 UNL     1     161.660 156.830 164.936  0.00  0.00    +0.000 A 
ATOM      9  N3  UNL     1     162.927 156.593 164.609  0.00  0.00    +0.000 N 
ATOM     10  C18 UNL     1     163.755 157.098 165.552  0.00  0.00    +0.000 A 
ATOM     11  C19 UNL     1     165.130 157.116 165.674  0.00  0.00    +0.000 A 
ATOM     12  C20 UNL     1     165.746 157.709 166.750  0.00  0.00    +0.000 A 
ATOM     13  C21 UNL     1     164.985 158.298 167.728  0.00  0.00    +0.000 A 
ATOM     14 BR1  UNL     1     165.807 159.138 169.255  0.00  0.00    +0.000 Br
ATOM     15  C22 UNL     1     163.607 158.265 167.581  0.00  0.00    +0.000 A 
ATOM     16  C23 UNL     1     162.949 157.683 166.522  0.00  0.00    +0.000 A 
ATOM     17  H11 UNL     1     163.252 156.092 163.748  0.00  0.00    +0.000 HD
ENDBRANCH   3   7
BRANCH   1  22
ATOM     18  F1  UNL     1     152.960 159.634 165.585  0.00  0.00    +0.000 F 
ATOM     19  C1  UNL     1     154.254 159.384 165.925  0.00  0.00    +0.000 A 
ATOM     20  C2  UNL     1     155.257 160.304 165.698  0.00  0.00    +0.000 A 
ATOM     21  C3  UNL     1     156.573 160.015 166.057  0.00  0.00    +0.000 A 
ATOM     22  C4  UNL     1     156.909 158.822 166.642  0.00  0.00    +0.000 A 
ATOM     23  C5  UNL     1     155.927 157.895 166.874  0.00  0.00    +0.000 A 
ATOM     24  C6  UNL     1     154.619 158.189 166.513  0.00  0.00    +0.000 A 
ENDBRANCH   1  22
BRANCH   5  25
ATOM     25  C10 UNL     1     158.230 159.142 169.451  0.00  0.00    +0.000 A 
ATOM     26  C11 UNL     1     157.737 158.296 170.422  0.00  0.00    +0.000 A 
ATOM     27  C12 UNL     1     157.139 158.765 171.588  0.00  0.00    +0.000 A 
ATOM     28  C13 UNL     1     157.020 160.128 171.815  0.00  0.00    +0.000 A 
ATOM     29  F2  UNL     1     156.430 160.543 172.972  0.00  0.00    +0.000 F 
ATOM     30  C14 UNL     1     157.508 160.995 170.855  0.00  0.00    +0.000 A 
ATOM     31  C15 UNL     1     158.097 160.515 169.704  0.00  0.00    +0.000 A 
ENDBRANCH   5  25
TORSDOF 3
ENDMDL
MODEL 8
REMARK VINA RESULT:      -6.9      4.262      5.519
REMARK  Name = ./3D_structures\o59_MMV1593537_3D.pdb
REMARK  3 active torsions:
REMARK  status: ('A' for Active; 'I' for Inactive)
REMARK    1  A    between atoms: C4_5  and  C7_8
REMARK    2  A    between atoms: C8_10  and  C16_20
REMARK    3  A    between atoms: C9_12  and  C10_13
REMARK                            x       y       z     vdW  Elec       q    Type
REMARK                         _______ _______ _______ _____ _____    ______ ____
ROOT
ATOM      1  C7  UNL     1     158.974 158.705 168.087  0.00  0.00    +0.000 A 
ATOM      2  N1  UNL     1     160.243 158.320 167.930  0.00  0.00    +0.000 NA
ATOM      3  C8  UNL     1     160.495 157.953 166.630  0.00  0.00    +0.000 A 
ATOM      4  N2  UNL     1     159.354 158.128 166.012  0.00  0.00    +0.000 N 
ATOM      5  C9  UNL     1     158.382 158.591 166.862  0.00  0.00    +0.000 A 
ATOM      6  H5  UNL     1     159.122 157.970 165.013  0.00  0.00    +0.000 HD
ENDROOT
BRANCH   3   7
ATOM      7  C16 UNL     1     161.806 157.481 166.209  0.00  0.00    +0.000 A 
ATOM      8  C17 UNL     1     162.028 156.502 165.233  0.00  0.00    +0.000 A 
ATOM      9  N3  UNL     1     163.341 156.334 165.105  0.00  0.00    +0.000 N 
ATOM     10  C18 UNL     1     164.002 157.156 165.951  0.00  0.00    +0.000 A 
ATOM     11  C19 UNL     1     165.346 157.361 166.195  0.00  0.00    +0.000 A 
ATOM     12  C20 UNL     1     165.773 158.278 167.125  0.00  0.00    +0.000 A 
ATOM     13  C21 UNL     1     164.852 159.010 167.830  0.00  0.00    +0.000 A 
ATOM     14 BR1  UNL     1     165.408 160.304 169.144  0.00  0.00    +0.000 Br
ATOM     15  C22 UNL     1     163.510 158.784 167.566  0.00  0.00    +0.000 A 
ATOM     16  C23 UNL     1     163.037 157.878 166.645  0.00  0.00    +0.000 A 
ATOM     17  H11 UNL     1     163.810 155.666 164.446  0.00  0.00    +0.000 HD
ENDBRANCH   3   7
BRANCH   1  22
ATOM     18  F1  UNL     1     156.608 160.504 172.854  0.00  0.00    +0.000 F 
ATOM     19  C1  UNL     1     157.184 160.080 171.696  0.00  0.00    +0.000 A 
ATOM     20  C2  UNL     1     157.604 160.965 170.725  0.00  0.00    +0.000 A 
ATOM     21  C3  UNL     1     158.188 160.496 169.549  0.00  0.00    +0.000 A 
ATOM     22  C4  UNL     1     158.364 159.156 169.323  0.00  0.00    +0.000 A 
ATOM     23  C5  UNL     1     157.953 158.261 170.276  0.00  0.00    +0.000 A 
ATOM     24  C6  UNL     1     157.371 158.735 171.444  0.00  0.00    +0.000 A 
ENDBRANCH   1  22
BRANCH   5  25
ATOM     25  C10 UNL     1     157.002 158.887 166.528  0.00  0.00    +0.000 A 
ATOM     26  C11 UNL     1     156.581 160.076 165.972  0.00  0.00    +0.000 A 
ATOM     27  C12 UNL     1     155.248 160.323 165.654  0.00  0.00    +0.000 A 
ATOM     28  C13 UNL     1     154.282 159.356 165.892  0.00  0.00    +0.000 A 
ATOM     29  F2  UNL     1     152.989 159.639 165.563  0.00  0.00    +0.000 F 
ATOM     30  C14 UNL     1     154.681 158.156 166.449  0.00  0.00    +0.000 A 
ATOM     31  C15 UNL     1     156.005 157.928 166.759  0.00  0.00    +0.000 A 
ENDBRANCH   5  25
TORSDOF 3
ENDMDL
MODEL 9
REMARK VINA RESULT:      -6.9      2.729      3.376
REMARK  Name = ./3D_structures\o59_MMV1593537_3D.pdb
REMARK  3 active torsions:
REMARK  status: ('A' for Active; 'I' for Inactive)
REMARK    1  A    between atoms: C4_5  and  C7_8
REMARK    2  A    between atoms: C8_10  and  C16_20
REMARK    3  A    between atoms: C9_12  and  C10_13
REMARK                            x       y       z     vdW  Elec       q    Type
REMARK                         _______ _______ _______ _____ _____    ______ ____
ROOT
ATOM      1  C7  UNL     1     157.839 157.197 165.996  0.00  0.00    +0.000 A 
ATOM      2  N1  UNL     1     158.426 156.284 165.218  0.00  0.00    +0.000 NA
ATOM      3  C8  UNL     1     157.495 155.487 164.595  0.00  0.00    +0.000 A 
ATOM      4  N2  UNL     1     156.341 155.943 165.012  0.00  0.00    +0.000 N 
ATOM      5  C9  UNL     1     156.493 156.997 165.877  0.00  0.00    +0.000 A 
ATOM      6  H5  UNL     1     155.386 155.618 164.771  0.00  0.00    +0.000 HD
ENDROOT
BRANCH   3   7
ATOM      7  C16 UNL     1     157.888 154.405 163.703  0.00  0.00    +0.000 A 
ATOM      8  C17 UNL     1     157.721 153.043 163.978  0.00  0.00    +0.000 A 
ATOM      9  N3  UNL     1     158.184 152.351 162.941  0.00  0.00    +0.000 N 
ATOM     10  C18 UNL     1     158.651 153.191 161.990  0.00  0.00    +0.000 A 
ATOM     11  C19 UNL     1     159.219 152.975 160.750  0.00  0.00    +0.000 A 
ATOM     12  C20 UNL     1     159.618 154.021 159.952  0.00  0.00    +0.000 A 
ATOM     13  C21 UNL     1     159.451 155.310 160.390  0.00  0.00    +0.000 A 
ATOM     14 BR1  UNL     1     159.998 156.805 159.305  0.00  0.00    +0.000 Br
ATOM     15  C22 UNL     1     158.879 155.499 161.638  0.00  0.00    +0.000 A 
ATOM     16  C23 UNL     1     158.465 154.483 162.469  0.00  0.00    +0.000 A 
ATOM     17  H11 UNL     1     158.190 151.306 162.858  0.00  0.00    +0.000 HD
ENDBRANCH   3   7
BRANCH   1  22
ATOM     18  F1  UNL     1     160.453 161.042 169.149  0.00  0.00    +0.000 F 
ATOM     19  C1  UNL     1     159.816 160.104 168.396  0.00  0.00    +0.000 A 
ATOM     20  C2  UNL     1     159.274 158.966 168.955  0.00  0.00    +0.000 A 
ATOM     21  C3  UNL     1     158.630 158.024 168.153  0.00  0.00    +0.000 A 
ATOM     22  C4  UNL     1     158.514 158.198 166.798  0.00  0.00    +0.000 A 
ATOM     23  C5  UNL     1     159.047 159.323 166.224  0.00  0.00    +0.000 A 
ATOM     24  C6  UNL     1     159.688 160.255 167.028  0.00  0.00    +0.000 A 
ENDBRANCH   1  22
BRANCH   5  25
ATOM     25  C10 UNL     1     155.438 157.740 166.539  0.00  0.00    +0.000 A 
ATOM     26  C11 UNL     1     154.780 158.813 165.978  0.00  0.00    +0.000 A 
ATOM     27  C12 UNL     1     153.764 159.497 166.639  0.00  0.00    +0.000 A 
ATOM     28  C13 UNL     1     153.373 159.109 167.912  0.00  0.00    +0.000 A 
ATOM     29  F2  UNL     1     152.371 159.805 168.522  0.00  0.00    +0.000 F 
ATOM     30  C14 UNL     1     154.019 158.035 168.495  0.00  0.00    +0.000 A 
ATOM     31  C15 UNL     1     155.024 157.369 167.827  0.00  0.00    +0.000 A 
ENDBRANCH   5  25
TORSDOF 3
ENDMDL
