MODEL 1
REMARK VINA RESULT:      -5.3      0.000      0.000
REMARK  Name = ./3D_structures\o5_MMV1578557_3D.pdb
REMARK  8 active torsions:
REMARK  status: ('A' for Active; 'I' for Inactive)
REMARK    1  A    between atoms: C1_1  and  C2_2
REMARK    2  A    between atoms: C3_3  and  N1_4
REMARK    3  A    between atoms: C7_8  and  C8_9
REMARK    4  A    between atoms: C8_9  and  N2_10
REMARK    5  A    between atoms: C11_13  and  O2_17
REMARK    6  A    between atoms: O2_17  and  C14_18
REMARK    7  A    between atoms: C14_18  and  C15_19
REMARK    8  A    between atoms: C15_19  and  C16_20
REMARK                            x       y       z     vdW  Elec       q    Type
REMARK                         _______ _______ _______ _____ _____    ______ ____
ROOT
ATOM      1  N2  UNL     1     157.539 159.390 170.821  0.00  0.00    +0.000 N 
ATOM      2  C9  UNL     1     157.655 160.682 170.520  0.00  0.00    +0.000 A 
ATOM      3  C10 UNL     1     156.914 161.644 171.229  0.00  0.00    +0.000 A 
ATOM      4  C11 UNL     1     156.051 161.313 172.247  0.00  0.00    +0.000 A 
ATOM      5  C12 UNL     1     155.965 159.890 172.538  0.00  0.00    +0.000 A 
ATOM      6  C13 UNL     1     156.701 159.029 171.821  0.00  0.00    +0.000 A 
ATOM      7  O1  UNL     1     156.604 157.774 172.117  0.00  0.00    +0.000 OA
ENDROOT
BRANCH   1   8
ATOM      8  C8  UNL     1     158.239 158.320 170.189  0.00  0.00    +0.000 C 
BRANCH   8  15
ATOM      9  C1  UNL     1     160.052 158.818 167.999  0.00  0.00    +0.000 C 
ATOM     10  C2  UNL     1     158.728 158.128 167.765  0.00  0.00    +0.000 A 
ATOM     11  C3  UNL     1     158.448 157.735 166.491  0.00  0.00    +0.000 A 
ATOM     12  C4  UNL     1     157.206 157.127 166.208  0.00  0.00    +0.000 A 
ATOM     13  C5  UNL     1     156.311 156.951 167.241  0.00  0.00    +0.000 A 
ATOM     14  C6  UNL     1     156.625 157.356 168.510  0.00  0.00    +0.000 A 
ATOM     15  C7  UNL     1     157.838 157.959 168.825  0.00  0.00    +0.000 A 
BRANCH  11  16
ATOM     16  N1  UNL     1     159.367 157.960 165.426  0.00  0.00    +0.000 N 
ATOM     17  H4  UNL     1     160.226 158.502 165.607  0.00  0.00    +0.000 HD
ATOM     18  H5  UNL     1     159.177 157.583 164.486  0.00  0.00    +0.000 HD
ENDBRANCH  11  16
ENDBRANCH   8  15
ENDBRANCH   1   8
BRANCH   4  19
ATOM     19  O2  UNL     1     155.321 162.082 172.977  0.00  0.00    +0.000 OA
BRANCH  19  20
ATOM     20  C14 UNL     1     154.581 162.857 173.712  0.00  0.00    +0.000 C 
BRANCH  20  21
ATOM     21  C15 UNL     1     153.133 163.023 173.247  0.00  0.00    +0.000 C 
BRANCH  21  22
ATOM     22  C16 UNL     1     152.485 161.718 173.040  0.00  0.00    +0.000 A 
ATOM     23  C17 UNL     1     152.110 160.714 173.867  0.00  0.00    +0.000 A 
ATOM     24  C18 UNL     1     151.545 159.619 173.331  0.00  0.00    +0.000 A 
ATOM     25  C19 UNL     1     151.347 159.503 172.016  0.00  0.00    +0.000 A 
ATOM     26  S1  UNL     1     152.021 161.097 171.410  0.00  0.00    +0.000 S 
ENDBRANCH  21  22
ENDBRANCH  20  21
ENDBRANCH  19  20
ENDBRANCH   4  19
TORSDOF 7
ENDMDL
MODEL 2
REMARK VINA RESULT:      -5.3      8.344     11.274
REMARK  Name = ./3D_structures\o5_MMV1578557_3D.pdb
REMARK  8 active torsions:
REMARK  status: ('A' for Active; 'I' for Inactive)
REMARK    1  A    between atoms: C1_1  and  C2_2
REMARK    2  A    between atoms: C3_3  and  N1_4
REMARK    3  A    between atoms: C7_8  and  C8_9
REMARK    4  A    between atoms: C8_9  and  N2_10
REMARK    5  A    between atoms: C11_13  and  O2_17
REMARK    6  A    between atoms: O2_17  and  C14_18
REMARK    7  A    between atoms: C14_18  and  C15_19
REMARK    8  A    between atoms: C15_19  and  C16_20
REMARK                            x       y       z     vdW  Elec       q    Type
REMARK                         _______ _______ _______ _____ _____    ______ ____
ROOT
ATOM      1  N2  UNL     1     148.416 163.210 168.382  0.00  0.00    +0.000 N 
ATOM      2  C9  UNL     1     149.559 163.694 168.865  0.00  0.00    +0.000 A 
ATOM      3  C10 UNL     1     150.770 163.020 168.628  0.00  0.00    +0.000 A 
ATOM      4  C11 UNL     1     150.841 161.853 167.903  0.00  0.00    +0.000 A 
ATOM      5  C12 UNL     1     149.565 161.371 167.396  0.00  0.00    +0.000 A 
ATOM      6  C13 UNL     1     148.450 162.065 167.661  0.00  0.00    +0.000 A 
ATOM      7  O1  UNL     1     147.338 161.608 167.183  0.00  0.00    +0.000 OA
ENDROOT
BRANCH   1   8
ATOM      8  C8  UNL     1     147.128 163.800 168.540  0.00  0.00    +0.000 C 
BRANCH   8  15
ATOM      9  C1  UNL     1     144.359 163.704 167.730  0.00  0.00    +0.000 C 
ATOM     10  C2  UNL     1     145.308 164.711 167.122  0.00  0.00    +0.000 A 
ATOM     11  C3  UNL     1     144.793 165.576 166.204  0.00  0.00    +0.000 A 
ATOM     12  C4  UNL     1     145.644 166.506 165.571  0.00  0.00    +0.000 A 
ATOM     13  C5  UNL     1     146.981 166.507 165.907  0.00  0.00    +0.000 A 
ATOM     14  C6  UNL     1     147.465 165.626 166.835  0.00  0.00    +0.000 A 
ATOM     15  C7  UNL     1     146.656 164.695 167.478  0.00  0.00    +0.000 A 
BRANCH  11  16
ATOM     16  N1  UNL     1     143.417 165.536 165.838  0.00  0.00    +0.000 N 
ATOM     17  H4  UNL     1     142.905 166.421 165.702  0.00  0.00    +0.000 HD
ATOM     18  H5  UNL     1     142.939 164.633 165.708  0.00  0.00    +0.000 HD
ENDBRANCH  11  16
ENDBRANCH   8  15
ENDBRANCH   1   8
BRANCH   4  19
ATOM     19  O2  UNL     1     151.870 161.141 167.608  0.00  0.00    +0.000 OA
BRANCH  19  20
ATOM     20  C14 UNL     1     152.913 160.424 167.312  0.00  0.00    +0.000 C 
BRANCH  20  21
ATOM     21  C15 UNL     1     153.235 160.310 165.820  0.00  0.00    +0.000 C 
BRANCH  21  22
ATOM     22  C16 UNL     1     153.092 161.608 165.143  0.00  0.00    +0.000 A 
ATOM     23  C17 UNL     1     152.148 162.149 164.337  0.00  0.00    +0.000 A 
ATOM     24  C18 UNL     1     152.345 163.390 163.861  0.00  0.00    +0.000 A 
ATOM     25  C19 UNL     1     153.439 164.093 164.164  0.00  0.00    +0.000 A 
ATOM     26  S1  UNL     1     154.336 162.913 165.244  0.00  0.00    +0.000 S 
ENDBRANCH  21  22
ENDBRANCH  20  21
ENDBRANCH  19  20
ENDBRANCH   4  19
TORSDOF 7
ENDMDL
MODEL 3
REMARK VINA RESULT:      -5.2      9.593     12.077
REMARK  Name = ./3D_structures\o5_MMV1578557_3D.pdb
REMARK  8 active torsions:
REMARK  status: ('A' for Active; 'I' for Inactive)
REMARK    1  A    between atoms: C1_1  and  C2_2
REMARK    2  A    between atoms: C3_3  and  N1_4
REMARK    3  A    between atoms: C7_8  and  C8_9
REMARK    4  A    between atoms: C8_9  and  N2_10
REMARK    5  A    between atoms: C11_13  and  O2_17
REMARK    6  A    between atoms: O2_17  and  C14_18
REMARK    7  A    between atoms: C14_18  and  C15_19
REMARK    8  A    between atoms: C15_19  and  C16_20
REMARK                            x       y       z     vdW  Elec       q    Type
REMARK                         _______ _______ _______ _____ _____    ______ ____
ROOT
ATOM      1  N2  UNL     1     147.908 165.192 167.520  0.00  0.00    +0.000 N 
ATOM      2  C9  UNL     1     147.287 164.943 168.672  0.00  0.00    +0.000 A 
ATOM      3  C10 UNL     1     147.932 165.201 169.895  0.00  0.00    +0.000 A 
ATOM      4  C11 UNL     1     149.207 165.712 169.968  0.00  0.00    +0.000 A 
ATOM      5  C12 UNL     1     149.837 165.969 168.682  0.00  0.00    +0.000 A 
ATOM      6  C13 UNL     1     149.163 165.699 167.555  0.00  0.00    +0.000 A 
ATOM      7  O1  UNL     1     149.754 165.951 166.433  0.00  0.00    +0.000 OA
ENDROOT
BRANCH   1   8
ATOM      8  C8  UNL     1     147.364 164.986 166.219  0.00  0.00    +0.000 C 
BRANCH   8  15
ATOM      9  C1  UNL     1     145.406 167.066 165.804  0.00  0.00    +0.000 C 
ATOM     10  C2  UNL     1     144.991 165.614 165.856  0.00  0.00    +0.000 A 
ATOM     11  C3  UNL     1     143.670 165.337 165.674  0.00  0.00    +0.000 A 
ATOM     12  C4  UNL     1     143.222 164.002 165.758  0.00  0.00    +0.000 A 
ATOM     13  C5  UNL     1     144.146 163.014 166.024  0.00  0.00    +0.000 A 
ATOM     14  C6  UNL     1     145.466 163.327 166.200  0.00  0.00    +0.000 A 
ATOM     15  C7  UNL     1     145.943 164.631 166.125  0.00  0.00    +0.000 A 
BRANCH  11  16
ATOM     16  N1  UNL     1     142.720 166.373 165.440  0.00  0.00    +0.000 N 
ATOM     17  H4  UNL     1     142.134 166.337 164.591  0.00  0.00    +0.000 HD
ATOM     18  H5  UNL     1     142.618 167.147 166.111  0.00  0.00    +0.000 HD
ENDBRANCH  11  16
ENDBRANCH   8  15
ENDBRANCH   1   8
BRANCH   4  19
ATOM     19  O2  UNL     1     149.909 165.998 171.007  0.00  0.00    +0.000 OA
BRANCH  19  20
ATOM     20  C14 UNL     1     150.620 166.283 172.057  0.00  0.00    +0.000 C 
BRANCH  20  21
ATOM     21  C15 UNL     1     151.686 167.363 171.861  0.00  0.00    +0.000 C 
BRANCH  21  22
ATOM     22  C16 UNL     1     151.087 168.631 171.419  0.00  0.00    +0.000 A 
ATOM     23  C17 UNL     1     150.964 169.245 170.219  0.00  0.00    +0.000 A 
ATOM     24  C18 UNL     1     150.358 170.443 170.169  0.00  0.00    +0.000 A 
ATOM     25  C19 UNL     1     149.879 171.034 171.268  0.00  0.00    +0.000 A 
ATOM     26  S1  UNL     1     150.308 169.800 172.554  0.00  0.00    +0.000 S 
ENDBRANCH  21  22
ENDBRANCH  20  21
ENDBRANCH  19  20
ENDBRANCH   4  19
TORSDOF 7
ENDMDL
MODEL 4
REMARK VINA RESULT:      -5.2      9.092     12.209
REMARK  Name = ./3D_structures\o5_MMV1578557_3D.pdb
REMARK  8 active torsions:
REMARK  status: ('A' for Active; 'I' for Inactive)
REMARK    1  A    between atoms: C1_1  and  C2_2
REMARK    2  A    between atoms: C3_3  and  N1_4
REMARK    3  A    between atoms: C7_8  and  C8_9
REMARK    4  A    between atoms: C8_9  and  N2_10
REMARK    5  A    between atoms: C11_13  and  O2_17
REMARK    6  A    between atoms: O2_17  and  C14_18
REMARK    7  A    between atoms: C14_18  and  C15_19
REMARK    8  A    between atoms: C15_19  and  C16_20
REMARK                            x       y       z     vdW  Elec       q    Type
REMARK                         _______ _______ _______ _____ _____    ______ ____
ROOT
ATOM      1  N2  UNL     1     147.588 165.131 167.294  0.00  0.00    +0.000 N 
ATOM      2  C9  UNL     1     148.341 164.079 167.615  0.00  0.00    +0.000 A 
ATOM      3  C10 UNL     1     149.609 163.910 167.031  0.00  0.00    +0.000 A 
ATOM      4  C11 UNL     1     150.130 164.799 166.120  0.00  0.00    +0.000 A 
ATOM      5  C12 UNL     1     149.271 165.931 165.808  0.00  0.00    +0.000 A 
ATOM      6  C13 UNL     1     148.073 166.027 166.403  0.00  0.00    +0.000 A 
ATOM      7  O1  UNL     1     147.343 167.053 166.106  0.00  0.00    +0.000 OA
ENDROOT
BRANCH   1   8
ATOM      8  C8  UNL     1     146.296 165.422 167.820  0.00  0.00    +0.000 C 
BRANCH   8  15
ATOM      9  C1  UNL     1     145.271 162.937 168.871  0.00  0.00    +0.000 C 
ATOM     10  C2  UNL     1     144.590 163.625 167.710  0.00  0.00    +0.000 A 
ATOM     11  C3  UNL     1     143.469 163.036 167.208  0.00  0.00    +0.000 A 
ATOM     12  C4  UNL     1     142.820 163.610 166.095  0.00  0.00    +0.000 A 
ATOM     13  C5  UNL     1     143.349 164.760 165.548  0.00  0.00    +0.000 A 
ATOM     14  C6  UNL     1     144.475 165.328 166.079  0.00  0.00    +0.000 A 
ATOM     15  C7  UNL     1     145.141 164.788 167.174  0.00  0.00    +0.000 A 
BRANCH  11  16
ATOM     16  N1  UNL     1     142.958 161.825 167.759  0.00  0.00    +0.000 N 
ATOM     17  H4  UNL     1     142.585 161.826 168.721  0.00  0.00    +0.000 HD
ATOM     18  H5  UNL     1     142.958 160.959 167.202  0.00  0.00    +0.000 HD
ENDBRANCH  11  16
ENDBRANCH   8  15
ENDBRANCH   1   8
BRANCH   4  19
ATOM     19  O2  UNL     1     151.266 164.772 165.517  0.00  0.00    +0.000 OA
BRANCH  19  20
ATOM     20  C14 UNL     1     152.412 164.746 164.904  0.00  0.00    +0.000 C 
BRANCH  20  21
ATOM     21  C15 UNL     1     152.609 163.591 163.919  0.00  0.00    +0.000 C 
BRANCH  21  22
ATOM     22  C16 UNL     1     153.105 162.386 164.602  0.00  0.00    +0.000 A 
ATOM     23  C17 UNL     1     154.338 161.934 164.932  0.00  0.00    +0.000 A 
ATOM     24  C18 UNL     1     154.440 160.747 165.555  0.00  0.00    +0.000 A 
ATOM     25  C19 UNL     1     153.364 160.015 165.852  0.00  0.00    +0.000 A 
ATOM     26  S1  UNL     1     152.018 161.074 165.197  0.00  0.00    +0.000 S 
ENDBRANCH  21  22
ENDBRANCH  20  21
ENDBRANCH  19  20
ENDBRANCH   4  19
TORSDOF 7
ENDMDL
MODEL 5
REMARK VINA RESULT:      -5.1      4.683      5.857
REMARK  Name = ./3D_structures\o5_MMV1578557_3D.pdb
REMARK  8 active torsions:
REMARK  status: ('A' for Active; 'I' for Inactive)
REMARK    1  A    between atoms: C1_1  and  C2_2
REMARK    2  A    between atoms: C3_3  and  N1_4
REMARK    3  A    between atoms: C7_8  and  C8_9
REMARK    4  A    between atoms: C8_9  and  N2_10
REMARK    5  A    between atoms: C11_13  and  O2_17
REMARK    6  A    between atoms: O2_17  and  C14_18
REMARK    7  A    between atoms: C14_18  and  C15_19
REMARK    8  A    between atoms: C15_19  and  C16_20
REMARK                            x       y       z     vdW  Elec       q    Type
REMARK                         _______ _______ _______ _____ _____    ______ ____
ROOT
ATOM      1  N2  UNL     1     154.779 158.190 167.486  0.00  0.00    +0.000 N 
ATOM      2  C9  UNL     1     154.687 158.769 166.289  0.00  0.00    +0.000 A 
ATOM      3  C10 UNL     1     153.719 159.762 166.055  0.00  0.00    +0.000 A 
ATOM      4  C11 UNL     1     152.837 160.182 167.024  0.00  0.00    +0.000 A 
ATOM      5  C12 UNL     1     152.985 159.522 168.312  0.00  0.00    +0.000 A 
ATOM      6  C13 UNL     1     153.930 158.583 168.464  0.00  0.00    +0.000 A 
ATOM      7  O1  UNL     1     154.035 158.028 169.627  0.00  0.00    +0.000 OA
ENDROOT
BRANCH   1   8
ATOM      8  C8  UNL     1     155.719 157.184 167.855  0.00  0.00    +0.000 C 
BRANCH   8  15
ATOM      9  C1  UNL     1     157.615 156.597 165.758  0.00  0.00    +0.000 C 
ATOM     10  C2  UNL     1     158.034 157.376 166.983  0.00  0.00    +0.000 A 
ATOM     11  C3  UNL     1     159.326 157.803 167.037  0.00  0.00    +0.000 A 
ATOM     12  C4  UNL     1     159.783 158.496 168.178  0.00  0.00    +0.000 A 
ATOM     13  C5  UNL     1     158.897 158.717 169.210  0.00  0.00    +0.000 A 
ATOM     14  C6  UNL     1     157.604 158.275 169.123  0.00  0.00    +0.000 A 
ATOM     15  C7  UNL     1     157.121 157.589 168.015  0.00  0.00    +0.000 A 
BRANCH  11  16
ATOM     16  N1  UNL     1     160.242 157.532 165.979  0.00  0.00    +0.000 N 
ATOM     17  H4  UNL     1     161.162 157.998 165.976  0.00  0.00    +0.000 HD
ATOM     18  H5  UNL     1     159.988 156.876 165.227  0.00  0.00    +0.000 HD
ENDBRANCH  11  16
ENDBRANCH   8  15
ENDBRANCH   1   8
BRANCH   4  19
ATOM     19  O2  UNL     1     151.914 161.074 166.950  0.00  0.00    +0.000 OA
BRANCH  19  20
ATOM     20  C14 UNL     1     150.984 161.979 166.877  0.00  0.00    +0.000 C 
BRANCH  20  21
ATOM     21  C15 UNL     1     151.473 163.415 166.676  0.00  0.00    +0.000 C 
BRANCH  21  22
ATOM     22  C16 UNL     1     152.382 163.513 165.524  0.00  0.00    +0.000 A 
ATOM     23  C17 UNL     1     152.205 163.485 164.182  0.00  0.00    +0.000 A 
ATOM     24  C18 UNL     1     153.285 163.584 163.390  0.00  0.00    +0.000 A 
ATOM     25  C19 UNL     1     154.516 163.710 163.893  0.00  0.00    +0.000 A 
ATOM     26  S1  UNL     1     154.171 163.690 165.694  0.00  0.00    +0.000 S 
ENDBRANCH  21  22
ENDBRANCH  20  21
ENDBRANCH  19  20
ENDBRANCH   4  19
TORSDOF 7
ENDMDL
MODEL 6
REMARK VINA RESULT:      -5.1      7.402     10.524
REMARK  Name = ./3D_structures\o5_MMV1578557_3D.pdb
REMARK  8 active torsions:
REMARK  status: ('A' for Active; 'I' for Inactive)
REMARK    1  A    between atoms: C1_1  and  C2_2
REMARK    2  A    between atoms: C3_3  and  N1_4
REMARK    3  A    between atoms: C7_8  and  C8_9
REMARK    4  A    between atoms: C8_9  and  N2_10
REMARK    5  A    between atoms: C11_13  and  O2_17
REMARK    6  A    between atoms: O2_17  and  C14_18
REMARK    7  A    between atoms: C14_18  and  C15_19
REMARK    8  A    between atoms: C15_19  and  C16_20
REMARK                            x       y       z     vdW  Elec       q    Type
REMARK                         _______ _______ _______ _____ _____    ______ ____
ROOT
ATOM      1  N2  UNL     1     148.002 162.946 168.624  0.00  0.00    +0.000 N 
ATOM      2  C9  UNL     1     147.974 161.902 167.796  0.00  0.00    +0.000 A 
ATOM      3  C10 UNL     1     149.093 161.058 167.681  0.00  0.00    +0.000 A 
ATOM      4  C11 UNL     1     150.249 161.258 168.400  0.00  0.00    +0.000 A 
ATOM      5  C12 UNL     1     150.225 162.408 169.291  0.00  0.00    +0.000 A 
ATOM      6  C13 UNL     1     149.123 163.169 169.349  0.00  0.00    +0.000 A 
ATOM      7  O1  UNL     1     149.138 164.175 170.161  0.00  0.00    +0.000 OA
ENDROOT
BRANCH   1   8
ATOM      8  C8  UNL     1     146.935 163.867 168.840  0.00  0.00    +0.000 C 
BRANCH   8  15
ATOM      9  C1  UNL     1     144.228 163.534 167.896  0.00  0.00    +0.000 C 
ATOM     10  C2  UNL     1     145.147 164.554 167.265  0.00  0.00    +0.000 A 
ATOM     11  C3  UNL     1     144.634 165.315 166.259  0.00  0.00    +0.000 A 
ATOM     12  C4  UNL     1     145.461 166.251 165.603  0.00  0.00    +0.000 A 
ATOM     13  C5  UNL     1     146.775 166.363 166.007  0.00  0.00    +0.000 A 
ATOM     14  C6  UNL     1     147.258 165.583 167.023  0.00  0.00    +0.000 A 
ATOM     15  C7  UNL     1     146.471 164.650 167.690  0.00  0.00    +0.000 A 
BRANCH  11  16
ATOM     16  N1  UNL     1     143.285 165.160 165.825  0.00  0.00    +0.000 N 
ATOM     17  H4  UNL     1     142.546 165.734 166.261  0.00  0.00    +0.000 HD
ATOM     18  H5  UNL     1     143.051 164.486 165.083  0.00  0.00    +0.000 HD
ENDBRANCH  11  16
ENDBRANCH   8  15
ENDBRANCH   1   8
BRANCH   4  19
ATOM     19  O2  UNL     1     151.336 160.570 168.397  0.00  0.00    +0.000 OA
BRANCH  19  20
ATOM     20  C14 UNL     1     152.432 159.872 168.393  0.00  0.00    +0.000 C 
BRANCH  20  21
ATOM     21  C15 UNL     1     152.529 158.787 169.469  0.00  0.00    +0.000 C 
BRANCH  21  22
ATOM     22  C16 UNL     1     152.415 159.362 170.818  0.00  0.00    +0.000 A 
ATOM     23  C17 UNL     1     151.414 159.433 171.727  0.00  0.00    +0.000 A 
ATOM     24  C18 UNL     1     151.647 160.065 172.890  0.00  0.00    +0.000 A 
ATOM     25  C19 UNL     1     152.833 160.616 173.164  0.00  0.00    +0.000 A 
ATOM     26  S1  UNL     1     153.769 160.231 171.636  0.00  0.00    +0.000 S 
ENDBRANCH  21  22
ENDBRANCH  20  21
ENDBRANCH  19  20
ENDBRANCH   4  19
TORSDOF 7
ENDMDL
MODEL 7
REMARK VINA RESULT:      -5.1      4.482      5.324
REMARK  Name = ./3D_structures\o5_MMV1578557_3D.pdb
REMARK  8 active torsions:
REMARK  status: ('A' for Active; 'I' for Inactive)
REMARK    1  A    between atoms: C1_1  and  C2_2
REMARK    2  A    between atoms: C3_3  and  N1_4
REMARK    3  A    between atoms: C7_8  and  C8_9
REMARK    4  A    between atoms: C8_9  and  N2_10
REMARK    5  A    between atoms: C11_13  and  O2_17
REMARK    6  A    between atoms: O2_17  and  C14_18
REMARK    7  A    between atoms: C14_18  and  C15_19
REMARK    8  A    between atoms: C15_19  and  C16_20
REMARK                            x       y       z     vdW  Elec       q    Type
REMARK                         _______ _______ _______ _____ _____    ______ ____
ROOT
ATOM      1  N2  UNL     1     153.676 158.562 168.227  0.00  0.00    +0.000 N 
ATOM      2  C9  UNL     1     153.810 159.438 167.233  0.00  0.00    +0.000 A 
ATOM      3  C10 UNL     1     152.908 160.510 167.106  0.00  0.00    +0.000 A 
ATOM      4  C11 UNL     1     151.864 160.707 167.980  0.00  0.00    +0.000 A 
ATOM      5  C12 UNL     1     151.766 159.725 169.049  0.00  0.00    +0.000 A 
ATOM      6  C13 UNL     1     152.662 158.729 169.108  0.00  0.00    +0.000 A 
ATOM      7  O1  UNL     1     152.546 157.883 170.079  0.00  0.00    +0.000 OA
ENDROOT
BRANCH   1   8
ATOM      8  C8  UNL     1     154.526 157.444 168.473  0.00  0.00    +0.000 C 
BRANCH   8  15
ATOM      9  C1  UNL     1     156.757 157.314 166.646  0.00  0.00    +0.000 C 
ATOM     10  C2  UNL     1     156.960 157.727 168.086  0.00  0.00    +0.000 A 
ATOM     11  C3  UNL     1     158.226 158.054 168.467  0.00  0.00    +0.000 A 
ATOM     12  C4  UNL     1     158.480 158.402 169.810  0.00  0.00    +0.000 A 
ATOM     13  C5  UNL     1     157.427 158.398 170.700  0.00  0.00    +0.000 A 
ATOM     14  C6  UNL     1     156.166 158.066 170.283  0.00  0.00    +0.000 A 
ATOM     15  C7  UNL     1     155.880 157.717 168.968  0.00  0.00    +0.000 A 
BRANCH  11  16
ATOM     16  N1  UNL     1     159.312 158.014 167.545  0.00  0.00    +0.000 N 
ATOM     17  H4  UNL     1     159.236 158.530 166.654  0.00  0.00    +0.000 HD
ATOM     18  H5  UNL     1     160.163 157.480 167.766  0.00  0.00    +0.000 HD
ENDBRANCH  11  16
ENDBRANCH   8  15
ENDBRANCH   1   8
BRANCH   4  19
ATOM     19  O2  UNL     1     150.975 161.637 167.987  0.00  0.00    +0.000 OA
BRANCH  19  20
ATOM     20  C14 UNL     1     150.079 162.578 167.996  0.00  0.00    +0.000 C 
BRANCH  20  21
ATOM     21  C15 UNL     1     149.351 162.785 169.326  0.00  0.00    +0.000 C 
BRANCH  21  22
ATOM     22  C16 UNL     1     148.138 163.598 169.150  0.00  0.00    +0.000 A 
ATOM     23  C17 UNL     1     147.180 164.052 169.993  0.00  0.00    +0.000 A 
ATOM     24  C18 UNL     1     146.168 164.775 169.485  0.00  0.00    +0.000 A 
ATOM     25  C19 UNL     1     146.089 165.052 168.181  0.00  0.00    +0.000 A 
ATOM     26  S1  UNL     1     147.593 164.218 167.544  0.00  0.00    +0.000 S 
ENDBRANCH  21  22
ENDBRANCH  20  21
ENDBRANCH  19  20
ENDBRANCH   4  19
TORSDOF 7
ENDMDL
MODEL 8
REMARK VINA RESULT:      -5.1      7.431     10.760
REMARK  Name = ./3D_structures\o5_MMV1578557_3D.pdb
REMARK  8 active torsions:
REMARK  status: ('A' for Active; 'I' for Inactive)
REMARK    1  A    between atoms: C1_1  and  C2_2
REMARK    2  A    between atoms: C3_3  and  N1_4
REMARK    3  A    between atoms: C7_8  and  C8_9
REMARK    4  A    between atoms: C8_9  and  N2_10
REMARK    5  A    between atoms: C11_13  and  O2_17
REMARK    6  A    between atoms: O2_17  and  C14_18
REMARK    7  A    between atoms: C14_18  and  C15_19
REMARK    8  A    between atoms: C15_19  and  C16_20
REMARK                            x       y       z     vdW  Elec       q    Type
REMARK                         _______ _______ _______ _____ _____    ______ ____
ROOT
ATOM      1  N2  UNL     1     148.076 162.845 168.569  0.00  0.00    +0.000 N 
ATOM      2  C9  UNL     1     148.058 161.810 167.731  0.00  0.00    +0.000 A 
ATOM      3  C10 UNL     1     149.194 160.993 167.590  0.00  0.00    +0.000 A 
ATOM      4  C11 UNL     1     150.357 161.211 168.291  0.00  0.00    +0.000 A 
ATOM      5  C12 UNL     1     150.321 162.351 169.195  0.00  0.00    +0.000 A 
ATOM      6  C13 UNL     1     149.203 163.087 169.278  0.00  0.00    +0.000 A 
ATOM      7  O1  UNL     1     149.209 164.085 170.100  0.00  0.00    +0.000 OA
ENDROOT
BRANCH   1   8
ATOM      8  C8  UNL     1     146.993 163.740 168.812  0.00  0.00    +0.000 C 
BRANCH   8  15
ATOM      9  C1  UNL     1     144.264 163.490 167.903  0.00  0.00    +0.000 C 
ATOM     10  C2  UNL     1     145.195 164.507 167.284  0.00  0.00    +0.000 A 
ATOM     11  C3  UNL     1     144.683 165.305 166.307  0.00  0.00    +0.000 A 
ATOM     12  C4  UNL     1     145.520 166.240 165.662  0.00  0.00    +0.000 A 
ATOM     13  C5  UNL     1     146.842 166.313 166.047  0.00  0.00    +0.000 A 
ATOM     14  C6  UNL     1     147.324 165.496 167.035  0.00  0.00    +0.000 A 
ATOM     15  C7  UNL     1     146.528 164.564 167.690  0.00  0.00    +0.000 A 
BRANCH  11  16
ATOM     16  N1  UNL     1     143.325 165.190 165.891  0.00  0.00    +0.000 N 
ATOM     17  H4  UNL     1     143.045 164.396 165.294  0.00  0.00    +0.000 HD
ATOM     18  H5  UNL     1     142.630 165.891 166.184  0.00  0.00    +0.000 HD
ENDBRANCH  11  16
ENDBRANCH   8  15
ENDBRANCH   1   8
BRANCH   4  19
ATOM     19  O2  UNL     1     151.459 160.548 168.264  0.00  0.00    +0.000 OA
BRANCH  19  20
ATOM     20  C14 UNL     1     152.570 159.875 168.238  0.00  0.00    +0.000 C 
BRANCH  20  21
ATOM     21  C15 UNL     1     152.727 158.816 169.332  0.00  0.00    +0.000 C 
BRANCH  21  22
ATOM     22  C16 UNL     1     154.100 158.288 169.370  0.00  0.00    +0.000 A 
ATOM     23  C17 UNL     1     154.763 157.343 168.663  0.00  0.00    +0.000 A 
ATOM     24  C18 UNL     1     156.044 157.087 168.978  0.00  0.00    +0.000 A 
ATOM     25  C19 UNL     1     156.669 157.739 169.961  0.00  0.00    +0.000 A 
ATOM     26  S1  UNL     1     155.342 158.858 170.551  0.00  0.00    +0.000 S 
ENDBRANCH  21  22
ENDBRANCH  20  21
ENDBRANCH  19  20
ENDBRANCH   4  19
TORSDOF 7
ENDMDL
MODEL 9
REMARK VINA RESULT:      -5.1      5.360      9.144
REMARK  Name = ./3D_structures\o5_MMV1578557_3D.pdb
REMARK  8 active torsions:
REMARK  status: ('A' for Active; 'I' for Inactive)
REMARK    1  A    between atoms: C1_1  and  C2_2
REMARK    2  A    between atoms: C3_3  and  N1_4
REMARK    3  A    between atoms: C7_8  and  C8_9
REMARK    4  A    between atoms: C8_9  and  N2_10
REMARK    5  A    between atoms: C11_13  and  O2_17
REMARK    6  A    between atoms: O2_17  and  C14_18
REMARK    7  A    between atoms: C14_18  and  C15_19
REMARK    8  A    between atoms: C15_19  and  C16_20
REMARK                            x       y       z     vdW  Elec       q    Type
REMARK                         _______ _______ _______ _____ _____    ______ ____
ROOT
ATOM      1  N2  UNL     1     157.460 157.551 167.357  0.00  0.00    +0.000 N 
ATOM      2  C9  UNL     1     157.931 158.212 168.414  0.00  0.00    +0.000 A 
ATOM      3  C10 UNL     1     159.286 158.585 168.470  0.00  0.00    +0.000 A 
ATOM      4  C11 UNL     1     160.177 158.296 167.462  0.00  0.00    +0.000 A 
ATOM      5  C12 UNL     1     159.610 157.578 166.331  0.00  0.00    +0.000 A 
ATOM      6  C13 UNL     1     158.309 157.255 166.346  0.00  0.00    +0.000 A 
ATOM      7  O1  UNL     1     157.842 156.625 165.317  0.00  0.00    +0.000 OA
ENDROOT
BRANCH   1   8
ATOM      8  C8  UNL     1     156.111 157.128 167.173  0.00  0.00    +0.000 C 
BRANCH   8  15
ATOM      9  C1  UNL     1     154.097 157.599 169.186  0.00  0.00    +0.000 C 
ATOM     10  C2  UNL     1     154.161 158.454 167.941  0.00  0.00    +0.000 A 
ATOM     11  C3  UNL     1     153.249 159.460 167.831  0.00  0.00    +0.000 A 
ATOM     12  C4  UNL     1     153.235 160.260 166.669  0.00  0.00    +0.000 A 
ATOM     13  C5  UNL     1     154.152 159.992 165.675  0.00  0.00    +0.000 A 
ATOM     14  C6  UNL     1     155.056 158.974 165.820  0.00  0.00    +0.000 A 
ATOM     15  C7  UNL     1     155.098 158.166 166.951  0.00  0.00    +0.000 A 
BRANCH  11  16
ATOM     16  N1  UNL     1     152.281 159.699 168.848  0.00  0.00    +0.000 N 
ATOM     17  H4  UNL     1     152.568 160.178 169.716  0.00  0.00    +0.000 HD
ATOM     18  H5  UNL     1     151.304 159.400 168.718  0.00  0.00    +0.000 HD
ENDBRANCH  11  16
ENDBRANCH   8  15
ENDBRANCH   1   8
BRANCH   4  19
ATOM     19  O2  UNL     1     161.430 158.577 167.380  0.00  0.00    +0.000 OA
BRANCH  19  20
ATOM     20  C14 UNL     1     162.694 158.865 167.299  0.00  0.00    +0.000 C 
BRANCH  20  21
ATOM     21  C15 UNL     1     163.656 157.732 167.666  0.00  0.00    +0.000 C 
BRANCH  21  22
ATOM     22  C16 UNL     1     164.975 158.255 168.052  0.00  0.00    +0.000 A 
ATOM     23  C17 UNL     1     165.494 158.735 169.207  0.00  0.00    +0.000 A 
ATOM     24  C18 UNL     1     166.769 159.161 169.209  0.00  0.00    +0.000 A 
ATOM     25  C19 UNL     1     167.524 159.121 168.109  0.00  0.00    +0.000 A 
ATOM     26  S1  UNL     1     166.351 158.409 166.893  0.00  0.00    +0.000 S 
ENDBRANCH  21  22
ENDBRANCH  20  21
ENDBRANCH  19  20
ENDBRANCH   4  19
TORSDOF 7
ENDMDL
