MODEL 1
REMARK VINA RESULT:      -7.0      0.000      0.000
REMARK  Name = ./3D_structures\o60_MMV1582492_3D.pdb
REMARK  5 active torsions:
REMARK  status: ('A' for Active; 'I' for Inactive)
REMARK    1  A    between atoms: C1_1  and  N1_2
REMARK    2  A    between atoms: C2_3  and  C16_20
REMARK    3  A    between atoms: N2_4  and  C10_14
REMARK    4  A    between atoms: C19_23  and  C20_25
REMARK    5  A    between atoms: C22_28  and  C23_29
REMARK                            x       y       z     vdW  Elec       q    Type
REMARK                         _______ _______ _______ _____ _____    ______ ____
ROOT
ATOM      1  C1  UNL     1     145.185 159.925 167.749  0.00  0.00    +0.000 C 
ATOM      2  N1  UNL     1     144.827 160.747 166.595  0.00  0.00    +0.000 N 
ATOM      3  C2  UNL     1     144.598 162.141 166.708  0.00  0.00    +0.000 C 
ATOM      4  N2  UNL     1     144.705 162.902 165.498  0.00  0.00    +0.000 N 
ATOM      5  C3  UNL     1     144.599 162.228 164.257  0.00  0.00    +0.000 C 
ATOM      6  O1  UNL     1     144.494 162.854 163.175  0.00  0.00    +0.000 OA
ATOM      7  C4  UNL     1     144.605 160.765 164.180  0.00  0.00    +0.000 A 
ATOM      8  C5  UNL     1     144.502 160.107 162.970  0.00  0.00    +0.000 A 
ATOM      9  C6  UNL     1     144.512 158.742 162.911  0.00  0.00    +0.000 A 
ATOM     10  F1  UNL     1     144.410 158.075 161.715  0.00  0.00    +0.000 F 
ATOM     11  C7  UNL     1     144.627 158.020 164.102  0.00  0.00    +0.000 A 
ATOM     12  C8  UNL     1     144.730 158.667 165.310  0.00  0.00    +0.000 A 
ATOM     13  C9  UNL     1     144.720 160.072 165.360  0.00  0.00    +0.000 A 
ENDROOT
BRANCH   4  14
ATOM     14  C10 UNL     1     144.916 164.306 165.583  0.00  0.00    +0.000 A 
ATOM     15  C11 UNL     1     146.191 164.838 165.540  0.00  0.00    +0.000 A 
ATOM     16  C12 UNL     1     146.441 166.193 165.615  0.00  0.00    +0.000 A 
ATOM     17  C13 UNL     1     145.393 167.076 165.742  0.00  0.00    +0.000 A 
ATOM     18  C14 UNL     1     144.114 166.569 165.788  0.00  0.00    +0.000 A 
ATOM     19  C15 UNL     1     143.880 165.208 165.711  0.00  0.00    +0.000 A 
ENDBRANCH   4  14
BRANCH   3  20
ATOM     20  C16 UNL     1     145.507 162.803 167.687  0.00  0.00    +0.000 A 
ATOM     21  C17 UNL     1     145.181 163.644 168.729  0.00  0.00    +0.000 A 
ATOM     22  C18 UNL     1     146.193 164.113 169.476  0.00  0.00    +0.000 A 
ATOM     23  C19 UNL     1     147.451 163.758 169.193  0.00  0.00    +0.000 A 
ATOM     24  S1  UNL     1     147.230 162.692 167.785  0.00  0.00    +0.000 S 
BRANCH  23  25
ATOM     25  C20 UNL     1     148.726 164.101 169.815  0.00  0.00    +0.000 A 
ATOM     26  C21 UNL     1     149.818 163.229 169.756  0.00  0.00    +0.000 A 
ATOM     27  S2  UNL     1     151.095 164.135 170.668  0.00  0.00    +0.000 S 
ATOM     28  C22 UNL     1     149.929 165.579 170.991  0.00  0.00    +0.000 A 
ATOM     29  C23 UNL     1     150.505 166.749 171.793  0.00  0.00    +0.000 C 
ATOM     30  N3  UNL     1     148.976 165.210 170.468  0.00  0.00    +0.000 NA
ENDBRANCH  23  25
ENDBRANCH   3  20
TORSDOF 3
ENDMDL
MODEL 2
REMARK VINA RESULT:      -6.8      3.835      5.837
REMARK  Name = ./3D_structures\o60_MMV1582492_3D.pdb
REMARK  5 active torsions:
REMARK  status: ('A' for Active; 'I' for Inactive)
REMARK    1  A    between atoms: C1_1  and  N1_2
REMARK    2  A    between atoms: C2_3  and  C16_20
REMARK    3  A    between atoms: N2_4  and  C10_14
REMARK    4  A    between atoms: C19_23  and  C20_25
REMARK    5  A    between atoms: C22_28  and  C23_29
REMARK                            x       y       z     vdW  Elec       q    Type
REMARK                         _______ _______ _______ _____ _____    ______ ____
ROOT
ATOM      1  C1  UNL     1     146.368 162.515 168.867  0.00  0.00    +0.000 C 
ATOM      2  N1  UNL     1     146.648 163.801 168.231  0.00  0.00    +0.000 N 
ATOM      3  C2  UNL     1     147.849 164.512 168.472  0.00  0.00    +0.000 C 
ATOM      4  N2  UNL     1     148.217 165.488 167.489  0.00  0.00    +0.000 N 
ATOM      5  C3  UNL     1     147.219 165.987 166.617  0.00  0.00    +0.000 C 
ATOM      6  O1  UNL     1     147.431 166.971 165.869  0.00  0.00    +0.000 OA
ATOM      7  C4  UNL     1     145.890 165.374 166.548  0.00  0.00    +0.000 A 
ATOM      8  C5  UNL     1     144.916 165.860 165.697  0.00  0.00    +0.000 A 
ATOM      9  C6  UNL     1     143.681 165.278 165.640  0.00  0.00    +0.000 A 
ATOM     10  F1  UNL     1     142.704 165.750 164.799  0.00  0.00    +0.000 F 
ATOM     11  C7  UNL     1     143.419 164.179 166.463  0.00  0.00    +0.000 A 
ATOM     12  C8  UNL     1     144.382 163.691 167.312  0.00  0.00    +0.000 A 
ATOM     13  C9  UNL     1     145.650 164.296 167.363  0.00  0.00    +0.000 A 
ENDROOT
BRANCH   4  14
ATOM     14  C10 UNL     1     149.570 165.923 167.422  0.00  0.00    +0.000 A 
ATOM     15  C11 UNL     1     150.359 165.623 166.328  0.00  0.00    +0.000 A 
ATOM     16  C12 UNL     1     151.674 166.027 166.219  0.00  0.00    +0.000 A 
ATOM     17  C13 UNL     1     152.251 166.761 167.231  0.00  0.00    +0.000 A 
ATOM     18  C14 UNL     1     151.483 167.071 168.332  0.00  0.00    +0.000 A 
ATOM     19  C15 UNL     1     150.166 166.659 168.425  0.00  0.00    +0.000 A 
ENDBRANCH   4  14
BRANCH   3  20
ATOM     20  C16 UNL     1     149.034 163.619 168.621  0.00  0.00    +0.000 A 
ATOM     21  C17 UNL     1     149.863 163.467 169.711  0.00  0.00    +0.000 A 
ATOM     22  C18 UNL     1     150.871 162.589 169.596  0.00  0.00    +0.000 A 
ATOM     23  C19 UNL     1     151.034 161.906 168.457  0.00  0.00    +0.000 A 
ATOM     24  S1  UNL     1     149.693 162.519 167.460  0.00  0.00    +0.000 S 
BRANCH  23  25
ATOM     25  C20 UNL     1     152.016 160.906 168.049  0.00  0.00    +0.000 A 
ATOM     26  C21 UNL     1     152.676 160.999 166.820  0.00  0.00    +0.000 A 
ATOM     27  S2  UNL     1     153.745 159.537 166.835  0.00  0.00    +0.000 S 
ATOM     28  C22 UNL     1     153.119 159.019 168.535  0.00  0.00    +0.000 A 
ATOM     29  C23 UNL     1     153.718 157.735 169.116  0.00  0.00    +0.000 C 
ATOM     30  N3  UNL     1     152.368 159.859 168.755  0.00  0.00    +0.000 NA
ENDBRANCH  23  25
ENDBRANCH   3  20
TORSDOF 3
ENDMDL
MODEL 3
REMARK VINA RESULT:      -6.8      9.248     12.256
REMARK  Name = ./3D_structures\o60_MMV1582492_3D.pdb
REMARK  5 active torsions:
REMARK  status: ('A' for Active; 'I' for Inactive)
REMARK    1  A    between atoms: C1_1  and  N1_2
REMARK    2  A    between atoms: C2_3  and  C16_20
REMARK    3  A    between atoms: N2_4  and  C10_14
REMARK    4  A    between atoms: C19_23  and  C20_25
REMARK    5  A    between atoms: C22_28  and  C23_29
REMARK                            x       y       z     vdW  Elec       q    Type
REMARK                         _______ _______ _______ _____ _____    ______ ____
ROOT
ATOM      1  C1  UNL     1     154.814 158.578 165.926  0.00  0.00    +0.000 C 
ATOM      2  N1  UNL     1     155.946 158.789 166.827  0.00  0.00    +0.000 N 
ATOM      3  C2  UNL     1     155.815 159.515 168.038  0.00  0.00    +0.000 C 
ATOM      4  N2  UNL     1     156.822 159.279 169.030  0.00  0.00    +0.000 N 
ATOM      5  C3  UNL     1     158.059 158.718 168.627  0.00  0.00    +0.000 C 
ATOM      6  O1  UNL     1     159.041 158.664 169.405  0.00  0.00    +0.000 OA
ATOM      7  C4  UNL     1     158.248 158.175 167.279  0.00  0.00    +0.000 A 
ATOM      8  C5  UNL     1     159.453 157.627 166.886  0.00  0.00    +0.000 A 
ATOM      9  C6  UNL     1     159.616 157.122 165.627  0.00  0.00    +0.000 A 
ATOM     10  F1  UNL     1     160.808 156.575 165.223  0.00  0.00    +0.000 F 
ATOM     11  C7  UNL     1     158.536 157.170 164.741  0.00  0.00    +0.000 A 
ATOM     12  C8  UNL     1     157.335 157.713 165.124  0.00  0.00    +0.000 A 
ATOM     13  C9  UNL     1     157.177 158.230 166.422  0.00  0.00    +0.000 A 
ENDROOT
BRANCH   4  14
ATOM     14  C10 UNL     1     156.547 159.614 170.384  0.00  0.00    +0.000 A 
ATOM     15  C11 UNL     1     156.584 160.927 170.814  0.00  0.00    +0.000 A 
ATOM     16  C12 UNL     1     156.320 161.298 172.117  0.00  0.00    +0.000 A 
ATOM     17  C13 UNL     1     156.004 160.337 173.051  0.00  0.00    +0.000 A 
ATOM     18  C14 UNL     1     155.962 159.022 172.646  0.00  0.00    +0.000 A 
ATOM     19  C15 UNL     1     156.229 158.667 171.336  0.00  0.00    +0.000 A 
ENDBRANCH   4  14
BRANCH   3  20
ATOM     20  C16 UNL     1     154.510 159.282 168.719  0.00  0.00    +0.000 A 
ATOM     21  C17 UNL     1     153.603 160.212 169.179  0.00  0.00    +0.000 A 
ATOM     22  C18 UNL     1     152.489 159.743 169.762  0.00  0.00    +0.000 A 
ATOM     23  C19 UNL     1     152.299 158.424 169.874  0.00  0.00    +0.000 A 
ATOM     24  S1  UNL     1     153.771 157.769 169.117  0.00  0.00    +0.000 S 
BRANCH  23  25
ATOM     25  C20 UNL     1     151.210 157.638 170.447  0.00  0.00    +0.000 A 
ATOM     26  C21 UNL     1     150.032 158.249 170.888  0.00  0.00    +0.000 A 
ATOM     27  S2  UNL     1     149.060 156.842 171.488  0.00  0.00    +0.000 S 
ATOM     28  C22 UNL     1     150.427 155.626 171.039  0.00  0.00    +0.000 A 
ATOM     29  C23 UNL     1     150.149 154.152 171.345  0.00  0.00    +0.000 C 
ATOM     30  N3  UNL     1     151.217 156.337 170.606  0.00  0.00    +0.000 NA
ENDBRANCH  23  25
ENDBRANCH   3  20
TORSDOF 3
ENDMDL
MODEL 4
REMARK VINA RESULT:      -6.7      7.087     10.409
REMARK  Name = ./3D_structures\o60_MMV1582492_3D.pdb
REMARK  5 active torsions:
REMARK  status: ('A' for Active; 'I' for Inactive)
REMARK    1  A    between atoms: C1_1  and  N1_2
REMARK    2  A    between atoms: C2_3  and  C16_20
REMARK    3  A    between atoms: N2_4  and  C10_14
REMARK    4  A    between atoms: C19_23  and  C20_25
REMARK    5  A    between atoms: C22_28  and  C23_29
REMARK                            x       y       z     vdW  Elec       q    Type
REMARK                         _______ _______ _______ _____ _____    ______ ____
ROOT
ATOM      1  C1  UNL     1     156.684 160.158 172.046  0.00  0.00    +0.000 C 
ATOM      2  N1  UNL     1     156.018 159.372 171.008  0.00  0.00    +0.000 N 
ATOM      3  C2  UNL     1     154.629 159.097 171.051  0.00  0.00    +0.000 C 
ATOM      4  N2  UNL     1     154.016 158.734 169.806  0.00  0.00    +0.000 N 
ATOM      5  C3  UNL     1     154.838 158.261 168.754  0.00  0.00    +0.000 C 
ATOM      6  O1  UNL     1     154.350 157.752 167.717  0.00  0.00    +0.000 OA
ATOM      7  C4  UNL     1     156.299 158.345 168.830  0.00  0.00    +0.000 A 
ATOM      8  C5  UNL     1     157.100 157.885 167.803  0.00  0.00    +0.000 A 
ATOM      9  C6  UNL     1     158.461 157.970 167.884  0.00  0.00    +0.000 A 
ATOM     10  F1  UNL     1     159.270 157.516 166.872  0.00  0.00    +0.000 F 
ATOM     11  C7  UNL     1     159.030 158.533 169.030  0.00  0.00    +0.000 A 
ATOM     12  C8  UNL     1     158.240 158.993 170.055  0.00  0.00    +0.000 A 
ATOM     13  C9  UNL     1     156.840 158.901 169.962  0.00  0.00    +0.000 A 
ENDROOT
BRANCH   4  14
ATOM     14  C10 UNL     1     152.606 158.862 169.670  0.00  0.00    +0.000 A 
ATOM     15  C11 UNL     1     151.752 157.910 170.193  0.00  0.00    +0.000 A 
ATOM     16  C12 UNL     1     150.379 157.996 170.087  0.00  0.00    +0.000 A 
ATOM     17  C13 UNL     1     149.808 159.065 169.435  0.00  0.00    +0.000 A 
ATOM     18  C14 UNL     1     150.640 160.026 168.904  0.00  0.00    +0.000 A 
ATOM     19  C15 UNL     1     152.015 159.926 169.020  0.00  0.00    +0.000 A 
ENDBRANCH   4  14
BRANCH   3  20
ATOM     20  C16 UNL     1     153.826 160.235 171.583  0.00  0.00    +0.000 A 
ATOM     21  C17 UNL     1     152.929 160.238 172.629  0.00  0.00    +0.000 A 
ATOM     22  C18 UNL     1     152.329 161.403 172.917  0.00  0.00    +0.000 A 
ATOM     23  C19 UNL     1     152.614 162.496 172.199  0.00  0.00    +0.000 A 
ATOM     24  S1  UNL     1     153.804 161.874 171.031  0.00  0.00    +0.000 S 
BRANCH  23  25
ATOM     25  C20 UNL     1     152.130 163.871 172.279  0.00  0.00    +0.000 A 
ATOM     26  C21 UNL     1     152.729 164.799 173.136  0.00  0.00    +0.000 A 
ATOM     27  S2  UNL     1     151.753 166.297 172.837  0.00  0.00    +0.000 S 
ATOM     28  C22 UNL     1     150.667 165.413 171.576  0.00  0.00    +0.000 A 
ATOM     29  C23 UNL     1     149.562 166.251 170.928  0.00  0.00    +0.000 C 
ATOM     30  N3  UNL     1     151.128 164.361 171.592  0.00  0.00    +0.000 NA
ENDBRANCH  23  25
ENDBRANCH   3  20
TORSDOF 3
ENDMDL
MODEL 5
REMARK VINA RESULT:      -6.7      6.749      9.706
REMARK  Name = ./3D_structures\o60_MMV1582492_3D.pdb
REMARK  5 active torsions:
REMARK  status: ('A' for Active; 'I' for Inactive)
REMARK    1  A    between atoms: C1_1  and  N1_2
REMARK    2  A    between atoms: C2_3  and  C16_20
REMARK    3  A    between atoms: N2_4  and  C10_14
REMARK    4  A    between atoms: C19_23  and  C20_25
REMARK    5  A    between atoms: C22_28  and  C23_29
REMARK                            x       y       z     vdW  Elec       q    Type
REMARK                         _______ _______ _______ _____ _____    ______ ____
ROOT
ATOM      1  C1  UNL     1     153.870 159.694 171.142  0.00  0.00    +0.000 C 
ATOM      2  N1  UNL     1     154.401 159.681 169.780  0.00  0.00    +0.000 N 
ATOM      3  C2  UNL     1     153.604 160.031 168.661  0.00  0.00    +0.000 C 
ATOM      4  N2  UNL     1     154.311 160.421 167.476  0.00  0.00    +0.000 N 
ATOM      5  C3  UNL     1     155.668 160.039 167.335  0.00  0.00    +0.000 C 
ATOM      6  O1  UNL     1     156.282 160.182 166.251  0.00  0.00    +0.000 OA
ATOM      7  C4  UNL     1     156.417 159.458 168.452  0.00  0.00    +0.000 A 
ATOM      8  C5  UNL     1     157.741 159.086 168.315  0.00  0.00    +0.000 A 
ATOM      9  C6  UNL     1     158.430 158.547 169.364  0.00  0.00    +0.000 A 
ATOM     10  F1  UNL     1     159.745 158.173 169.242  0.00  0.00    +0.000 F 
ATOM     11  C7  UNL     1     157.768 158.378 170.584  0.00  0.00    +0.000 A 
ATOM     12  C8  UNL     1     156.453 158.745 170.728  0.00  0.00    +0.000 A 
ATOM     13  C9  UNL     1     155.752 159.299 169.642  0.00  0.00    +0.000 A 
ENDROOT
BRANCH   4  14
ATOM     14  C10 UNL     1     153.629 161.178 166.484  0.00  0.00    +0.000 A 
ATOM     15  C11 UNL     1     152.632 160.608 165.716  0.00  0.00    +0.000 A 
ATOM     16  C12 UNL     1     151.941 161.305 164.745  0.00  0.00    +0.000 A 
ATOM     17  C13 UNL     1     152.240 162.629 164.510  0.00  0.00    +0.000 A 
ATOM     18  C14 UNL     1     153.231 163.217 165.264  0.00  0.00    +0.000 A 
ATOM     19  C15 UNL     1     153.914 162.504 166.233  0.00  0.00    +0.000 A 
ENDBRANCH   4  14
BRANCH   3  20
ATOM     20  C16 UNL     1     152.651 161.141 168.949  0.00  0.00    +0.000 A 
ATOM     21  C17 UNL     1     152.930 162.443 169.304  0.00  0.00    +0.000 A 
ATOM     22  C18 UNL     1     151.885 163.258 169.510  0.00  0.00    +0.000 A 
ATOM     23  C19 UNL     1     150.638 162.794 169.368  0.00  0.00    +0.000 A 
ATOM     24  S1  UNL     1     150.922 161.097 168.913  0.00  0.00    +0.000 S 
BRANCH  23  25
ATOM     25  C20 UNL     1     149.335 163.432 169.521  0.00  0.00    +0.000 A 
ATOM     26  C21 UNL     1     149.220 164.734 170.018  0.00  0.00    +0.000 A 
ATOM     27  S2  UNL     1     147.429 165.008 169.998  0.00  0.00    +0.000 S 
ATOM     28  C22 UNL     1     147.111 163.284 169.308  0.00  0.00    +0.000 A 
ATOM     29  C23 UNL     1     145.645 162.912 169.064  0.00  0.00    +0.000 C 
ATOM     30  N3  UNL     1     148.182 162.880 169.228  0.00  0.00    +0.000 NA
ENDBRANCH  23  25
ENDBRANCH   3  20
TORSDOF 3
ENDMDL
MODEL 6
REMARK VINA RESULT:      -6.6      6.440      8.487
REMARK  Name = ./3D_structures\o60_MMV1582492_3D.pdb
REMARK  5 active torsions:
REMARK  status: ('A' for Active; 'I' for Inactive)
REMARK    1  A    between atoms: C1_1  and  N1_2
REMARK    2  A    between atoms: C2_3  and  C16_20
REMARK    3  A    between atoms: N2_4  and  C10_14
REMARK    4  A    between atoms: C19_23  and  C20_25
REMARK    5  A    between atoms: C22_28  and  C23_29
REMARK                            x       y       z     vdW  Elec       q    Type
REMARK                         _______ _______ _______ _____ _____    ______ ____
ROOT
ATOM      1  C1  UNL     1     149.894 161.909 168.184  0.00  0.00    +0.000 C 
ATOM      2  N1  UNL     1     150.237 163.120 167.442  0.00  0.00    +0.000 N 
ATOM      3  C2  UNL     1     151.559 163.381 167.001  0.00  0.00    +0.000 C 
ATOM      4  N2  UNL     1     151.696 164.323 165.928  0.00  0.00    +0.000 N 
ATOM      5  C3  UNL     1     150.633 165.224 165.673  0.00  0.00    +0.000 C 
ATOM      6  O1  UNL     1     150.765 166.189 164.882  0.00  0.00    +0.000 OA
ATOM      7  C4  UNL     1     149.329 165.071 166.323  0.00  0.00    +0.000 A 
ATOM      8  C5  UNL     1     148.293 165.949 166.073  0.00  0.00    +0.000 A 
ATOM      9  C6  UNL     1     147.080 165.795 166.684  0.00  0.00    +0.000 A 
ATOM     10  F1  UNL     1     146.042 166.660 166.445  0.00  0.00    +0.000 F 
ATOM     11  C7  UNL     1     146.907 164.727 167.570  0.00  0.00    +0.000 A 
ATOM     12  C8  UNL     1     147.933 163.850 167.823  0.00  0.00    +0.000 A 
ATOM     13  C9  UNL     1     149.177 164.017 167.190  0.00  0.00    +0.000 A 
ENDROOT
BRANCH   4  14
ATOM     14  C10 UNL     1     152.890 164.320 165.158  0.00  0.00    +0.000 A 
ATOM     15  C11 UNL     1     152.886 163.904 163.840  0.00  0.00    +0.000 A 
ATOM     16  C12 UNL     1     154.021 163.889 163.054  0.00  0.00    +0.000 A 
ATOM     17  C13 UNL     1     155.224 164.299 163.582  0.00  0.00    +0.000 A 
ATOM     18  C14 UNL     1     155.253 164.717 164.894  0.00  0.00    +0.000 A 
ATOM     19  C15 UNL     1     154.106 164.727 165.668  0.00  0.00    +0.000 A 
ENDBRANCH   4  14
BRANCH   3  20
ATOM     20  C16 UNL     1     152.278 162.153 166.558  0.00  0.00    +0.000 A 
ATOM     21  C17 UNL     1     151.971 161.309 165.513  0.00  0.00    +0.000 A 
ATOM     22  C18 UNL     1     152.784 160.259 165.316  0.00  0.00    +0.000 A 
ATOM     23  C19 UNL     1     153.838 160.071 166.118  0.00  0.00    +0.000 A 
ATOM     24  S1  UNL     1     153.704 161.449 167.237  0.00  0.00    +0.000 S 
BRANCH  23  25
ATOM     25  C20 UNL     1     154.874 159.044 166.145  0.00  0.00    +0.000 A 
ATOM     26  C21 UNL     1     154.810 157.975 167.044  0.00  0.00    +0.000 A 
ATOM     27  S2  UNL     1     156.311 157.038 166.650  0.00  0.00    +0.000 S 
ATOM     28  C22 UNL     1     156.799 158.265 165.306  0.00  0.00    +0.000 A 
ATOM     29  C23 UNL     1     158.101 157.968 164.558  0.00  0.00    +0.000 C 
ATOM     30  N3  UNL     1     155.931 159.014 165.370  0.00  0.00    +0.000 NA
ENDBRANCH  23  25
ENDBRANCH   3  20
TORSDOF 3
ENDMDL
MODEL 7
REMARK VINA RESULT:      -6.5     14.039     16.956
REMARK  Name = ./3D_structures\o60_MMV1582492_3D.pdb
REMARK  5 active torsions:
REMARK  status: ('A' for Active; 'I' for Inactive)
REMARK    1  A    between atoms: C1_1  and  N1_2
REMARK    2  A    between atoms: C2_3  and  C16_20
REMARK    3  A    between atoms: N2_4  and  C10_14
REMARK    4  A    between atoms: C19_23  and  C20_25
REMARK    5  A    between atoms: C22_28  and  C23_29
REMARK                            x       y       z     vdW  Elec       q    Type
REMARK                         _______ _______ _______ _____ _____    ______ ____
ROOT
ATOM      1  C1  UNL     1     162.145 155.872 163.307  0.00  0.00    +0.000 C 
ATOM      2  N1  UNL     1     161.596 156.710 164.372  0.00  0.00    +0.000 N 
ATOM      3  C2  UNL     1     160.248 157.147 164.363  0.00  0.00    +0.000 C 
ATOM      4  N2  UNL     1     159.705 157.554 165.626  0.00  0.00    +0.000 N 
ATOM      5  C3  UNL     1     160.595 157.907 166.668  0.00  0.00    +0.000 C 
ATOM      6  O1  UNL     1     160.190 158.449 167.725  0.00  0.00    +0.000 OA
ATOM      7  C4  UNL     1     162.035 157.655 166.562  0.00  0.00    +0.000 A 
ATOM      8  C5  UNL     1     162.903 157.998 167.580  0.00  0.00    +0.000 A 
ATOM      9  C6  UNL     1     164.244 157.756 167.469  0.00  0.00    +0.000 A 
ATOM     10  F1  UNL     1     165.118 158.091 168.472  0.00  0.00    +0.000 F 
ATOM     11  C7  UNL     1     164.721 157.152 166.302  0.00  0.00    +0.000 A 
ATOM     12  C8  UNL     1     163.864 156.808 165.286  0.00  0.00    +0.000 A 
ATOM     13  C9  UNL     1     162.486 157.061 165.409  0.00  0.00    +0.000 A 
ENDROOT
BRANCH   4  14
ATOM     14  C10 UNL     1     158.293 157.590 165.789  0.00  0.00    +0.000 A 
ATOM     15  C11 UNL     1     157.535 158.595 165.217  0.00  0.00    +0.000 A 
ATOM     16  C12 UNL     1     156.163 158.666 165.347  0.00  0.00    +0.000 A 
ATOM     17  C13 UNL     1     155.494 157.708 166.074  0.00  0.00    +0.000 A 
ATOM     18  C14 UNL     1     156.228 156.697 166.653  0.00  0.00    +0.000 A 
ATOM     19  C15 UNL     1     157.603 156.639 166.514  0.00  0.00    +0.000 A 
ENDBRANCH   4  14
BRANCH   3  20
ATOM     20  C16 UNL     1     159.307 156.121 163.828  0.00  0.00    +0.000 A 
ATOM     21  C17 UNL     1     158.361 156.259 162.836  0.00  0.00    +0.000 A 
ATOM     22  C18 UNL     1     157.632 155.174 162.531  0.00  0.00    +0.000 A 
ATOM     23  C19 UNL     1     157.842 154.024 163.183  0.00  0.00    +0.000 A 
ATOM     24  S1  UNL     1     159.149 154.467 164.307  0.00  0.00    +0.000 S 
BRANCH  23  25
ATOM     25  C20 UNL     1     157.219 152.709 163.070  0.00  0.00    +0.000 A 
ATOM     26  C21 UNL     1     157.387 151.741 164.064  0.00  0.00    +0.000 A 
ATOM     27  S2  UNL     1     156.426 150.346 163.422  0.00  0.00    +0.000 S 
ATOM     28  C22 UNL     1     155.938 151.311 161.880  0.00  0.00    +0.000 A 
ATOM     29  C23 UNL     1     155.046 150.576 160.874  0.00  0.00    +0.000 C 
ATOM     30  N3  UNL     1     156.471 152.310 162.070  0.00  0.00    +0.000 NA
ENDBRANCH  23  25
ENDBRANCH   3  20
TORSDOF 3
ENDMDL
MODEL 8
REMARK VINA RESULT:      -6.5      3.625      5.495
REMARK  Name = ./3D_structures\o60_MMV1582492_3D.pdb
REMARK  5 active torsions:
REMARK  status: ('A' for Active; 'I' for Inactive)
REMARK    1  A    between atoms: C1_1  and  N1_2
REMARK    2  A    between atoms: C2_3  and  C16_20
REMARK    3  A    between atoms: N2_4  and  C10_14
REMARK    4  A    between atoms: C19_23  and  C20_25
REMARK    5  A    between atoms: C22_28  and  C23_29
REMARK                            x       y       z     vdW  Elec       q    Type
REMARK                         _______ _______ _______ _____ _____    ______ ____
ROOT
ATOM      1  C1  UNL     1     146.254 162.325 168.624  0.00  0.00    +0.000 C 
ATOM      2  N1  UNL     1     146.535 163.641 168.053  0.00  0.00    +0.000 N 
ATOM      3  C2  UNL     1     147.758 164.316 168.287  0.00  0.00    +0.000 C 
ATOM      4  N2  UNL     1     148.108 165.342 167.349  0.00  0.00    +0.000 N 
ATOM      5  C3  UNL     1     147.087 165.907 166.546  0.00  0.00    +0.000 C 
ATOM      6  O1  UNL     1     147.289 166.930 165.849  0.00  0.00    +0.000 OA
ATOM      7  C4  UNL     1     145.744 165.323 166.495  0.00  0.00    +0.000 A 
ATOM      8  C5  UNL     1     144.749 165.874 165.711  0.00  0.00    +0.000 A 
ATOM      9  C6  UNL     1     143.501 165.318 165.670  0.00  0.00    +0.000 A 
ATOM     10  F1  UNL     1     142.502 165.855 164.896  0.00  0.00    +0.000 F 
ATOM     11  C7  UNL     1     143.249 164.178 166.438  0.00  0.00    +0.000 A 
ATOM     12  C8  UNL     1     144.234 163.624 167.219  0.00  0.00    +0.000 A 
ATOM     13  C9  UNL     1     145.515 164.203 167.255  0.00  0.00    +0.000 A 
ENDROOT
BRANCH   4  14
ATOM     14  C10 UNL     1     149.464 165.756 167.253  0.00  0.00    +0.000 A 
ATOM     15  C11 UNL     1     150.054 166.498 168.259  0.00  0.00    +0.000 A 
ATOM     16  C12 UNL     1     151.368 166.917 168.210  0.00  0.00    +0.000 A 
ATOM     17  C13 UNL     1     152.148 166.598 167.122  0.00  0.00    +0.000 A 
ATOM     18  C14 UNL     1     151.582 165.860 166.106  0.00  0.00    +0.000 A 
ATOM     19  C15 UNL     1     150.263 165.447 166.171  0.00  0.00    +0.000 A 
ENDBRANCH   4  14
BRANCH   3  20
ATOM     20  C16 UNL     1     148.930 163.396 168.338  0.00  0.00    +0.000 A 
ATOM     21  C17 UNL     1     149.336 162.470 167.402  0.00  0.00    +0.000 A 
ATOM     22  C18 UNL     1     150.437 161.757 167.685  0.00  0.00    +0.000 A 
ATOM     23  C19 UNL     1     151.088 161.961 168.835  0.00  0.00    +0.000 A 
ATOM     24  S1  UNL     1     150.110 163.240 169.594  0.00  0.00    +0.000 S 
BRANCH  23  25
ATOM     25  C20 UNL     1     152.287 161.351 169.402  0.00  0.00    +0.000 A 
ATOM     26  C21 UNL     1     153.327 160.904 168.582  0.00  0.00    +0.000 A 
ATOM     27  S2  UNL     1     154.521 160.253 169.780  0.00  0.00    +0.000 S 
ATOM     28  C22 UNL     1     153.402 160.696 171.230  0.00  0.00    +0.000 A 
ATOM     29  C23 UNL     1     153.930 160.350 172.625  0.00  0.00    +0.000 C 
ATOM     30  N3  UNL     1     152.507 161.161 170.680  0.00  0.00    +0.000 NA
ENDBRANCH  23  25
ENDBRANCH   3  20
TORSDOF 3
ENDMDL
MODEL 9
REMARK VINA RESULT:      -6.4      8.236     10.769
REMARK  Name = ./3D_structures\o60_MMV1582492_3D.pdb
REMARK  5 active torsions:
REMARK  status: ('A' for Active; 'I' for Inactive)
REMARK    1  A    between atoms: C1_1  and  N1_2
REMARK    2  A    between atoms: C2_3  and  C16_20
REMARK    3  A    between atoms: N2_4  and  C10_14
REMARK    4  A    between atoms: C19_23  and  C20_25
REMARK    5  A    between atoms: C22_28  and  C23_29
REMARK                            x       y       z     vdW  Elec       q    Type
REMARK                         _______ _______ _______ _____ _____    ______ ____
ROOT
ATOM      1  C1  UNL     1     156.343 160.185 164.174  0.00  0.00    +0.000 C 
ATOM      2  N1  UNL     1     156.400 159.423 165.420  0.00  0.00    +0.000 N 
ATOM      3  C2  UNL     1     155.798 159.893 166.614  0.00  0.00    +0.000 C 
ATOM      4  N2  UNL     1     155.519 158.905 167.615  0.00  0.00    +0.000 N 
ATOM      5  C3  UNL     1     156.210 157.670 167.564  0.00  0.00    +0.000 C 
ATOM      6  O1  UNL     1     156.154 156.846 168.509  0.00  0.00    +0.000 OA
ATOM      7  C4  UNL     1     157.024 157.297 166.404  0.00  0.00    +0.000 A 
ATOM      8  C5  UNL     1     157.696 156.091 166.354  0.00  0.00    +0.000 A 
ATOM      9  C6  UNL     1     158.450 155.754 165.266  0.00  0.00    +0.000 A 
ATOM     10  F1  UNL     1     159.124 154.560 165.203  0.00  0.00    +0.000 F 
ATOM     11  C7  UNL     1     158.529 156.655 164.200  0.00  0.00    +0.000 A 
ATOM     12  C8  UNL     1     157.863 157.855 164.243  0.00  0.00    +0.000 A 
ATOM     13  C9  UNL     1     157.089 158.193 165.367  0.00  0.00    +0.000 A 
ENDROOT
BRANCH   4  14
ATOM     14  C10 UNL     1     154.560 159.198 168.623  0.00  0.00    +0.000 A 
ATOM     15  C11 UNL     1     154.827 160.125 169.613  0.00  0.00    +0.000 A 
ATOM     16  C12 UNL     1     153.925 160.442 170.607  0.00  0.00    +0.000 A 
ATOM     17  C13 UNL     1     152.697 159.821 170.640  0.00  0.00    +0.000 A 
ATOM     18  C14 UNL     1     152.408 158.892 169.665  0.00  0.00    +0.000 A 
ATOM     19  C15 UNL     1     153.324 158.586 168.674  0.00  0.00    +0.000 A 
ENDBRANCH   4  14
BRANCH   3  20
ATOM     20  C16 UNL     1     154.511 160.606 166.377  0.00  0.00    +0.000 A 
ATOM     21  C17 UNL     1     153.349 160.117 165.820  0.00  0.00    +0.000 A 
ATOM     22  C18 UNL     1     152.316 160.968 165.715  0.00  0.00    +0.000 A 
ATOM     23  C19 UNL     1     152.444 162.229 166.143  0.00  0.00    +0.000 A 
ATOM     24  S1  UNL     1     154.120 162.252 166.740  0.00  0.00    +0.000 S 
BRANCH  23  25
ATOM     25  C20 UNL     1     151.514 163.354 166.159  0.00  0.00    +0.000 A 
ATOM     26  C21 UNL     1     151.580 164.360 165.190  0.00  0.00    +0.000 A 
ATOM     27  S2  UNL     1     150.234 165.469 165.683  0.00  0.00    +0.000 S 
ATOM     28  C22 UNL     1     149.786 164.376 167.150  0.00  0.00    +0.000 A 
ATOM     29  C23 UNL     1     148.616 164.851 168.017  0.00  0.00    +0.000 C 
ATOM     30  N3  UNL     1     150.564 163.538 167.042  0.00  0.00    +0.000 NA
ENDBRANCH  23  25
ENDBRANCH   3  20
TORSDOF 3
ENDMDL
