MODEL 1
REMARK VINA RESULT:      -3.2      0.000      0.000
REMARK  Name = ./3D_structures\o63_MMV002354_3D.pdb
REMARK  4 active torsions:
REMARK  status: ('A' for Active; 'I' for Inactive)
REMARK    1  A    between atoms: C1_1  and  C2_2
REMARK    2  A    between atoms: C3_4  and  P1_5
REMARK    3  A    between atoms: P1_5  and  O3_7
REMARK    4  A    between atoms: P1_5  and  O4_8
REMARK                            x       y       z     vdW  Elec       q    Type
REMARK                         _______ _______ _______ _____ _____    ______ ____
ROOT
ATOM      1  P1  UNL     1     145.804 163.933 168.945  0.00  0.00    +0.000 P 
ATOM      2  O2  UNL     1     146.058 162.827 169.939  0.00  0.00    +0.000 OA
ENDROOT
BRANCH   1   6
ATOM      3  C1  UNL     1     146.073 165.804 166.333  0.00  0.00    +0.000 C 
ATOM      4  C2  UNL     1     147.077 164.668 166.497  0.00  0.00    +0.000 C 
ATOM      5  O1  UNL     1     146.597 163.364 166.470  0.00  0.00    +0.000 OA
ATOM      6  C3  UNL     1     147.124 163.951 167.732  0.00  0.00    +0.000 C 
ENDBRANCH   1   6
BRANCH   1   7
ATOM      7  O3  UNL     1     144.303 163.722 168.263  0.00  0.00    +0.000 OA
ATOM      8  H6  UNL     1     143.959 164.498 167.768  0.00  0.00    +0.000 HD
ENDBRANCH   1   7
BRANCH   1   9
ATOM      9  O4  UNL     1     145.824 165.459 169.724  0.00  0.00    +0.000 OA
ATOM     10  H7  UNL     1     145.465 165.358 170.620  0.00  0.00    +0.000 HD
ENDBRANCH   1   9
TORSDOF 3
ENDMDL
MODEL 2
REMARK VINA RESULT:      -3.2     25.323     26.225
REMARK  Name = ./3D_structures\o63_MMV002354_3D.pdb
REMARK  4 active torsions:
REMARK  status: ('A' for Active; 'I' for Inactive)
REMARK    1  A    between atoms: C1_1  and  C2_2
REMARK    2  A    between atoms: C3_4  and  P1_5
REMARK    3  A    between atoms: P1_5  and  O3_7
REMARK    4  A    between atoms: P1_5  and  O4_8
REMARK                            x       y       z     vdW  Elec       q    Type
REMARK                         _______ _______ _______ _____ _____    ______ ____
ROOT
ATOM      1  P1  UNL     1     152.871 140.671 162.209  0.00  0.00    +0.000 P 
ATOM      2  O2  UNL     1     152.347 141.966 161.639  0.00  0.00    +0.000 OA
ENDROOT
BRANCH   1   6
ATOM      3  C1  UNL     1     154.357 137.817 162.410  0.00  0.00    +0.000 C 
ATOM      4  C2  UNL     1     154.823 138.782 161.327  0.00  0.00    +0.000 C 
ATOM      5  O1  UNL     1     155.396 139.985 161.725  0.00  0.00    +0.000 OA
ATOM      6  C3  UNL     1     154.060 139.964 161.069  0.00  0.00    +0.000 C 
ENDBRANCH   1   6
BRANCH   1   7
ATOM      7  O3  UNL     1     153.513 140.957 163.716  0.00  0.00    +0.000 OA
ATOM      8  H6  UNL     1     154.489 141.065 163.737  0.00  0.00    +0.000 HD
ENDBRANCH   1   7
BRANCH   1   9
ATOM      9  O4  UNL     1     151.604 139.531 162.378  0.00  0.00    +0.000 OA
ATOM     10  H7  UNL     1     150.805 139.992 162.678  0.00  0.00    +0.000 HD
ENDBRANCH   1   9
TORSDOF 3
ENDMDL
MODEL 3
REMARK VINA RESULT:      -3.1      1.643      2.080
REMARK  Name = ./3D_structures\o63_MMV002354_3D.pdb
REMARK  4 active torsions:
REMARK  status: ('A' for Active; 'I' for Inactive)
REMARK    1  A    between atoms: C1_1  and  C2_2
REMARK    2  A    between atoms: C3_4  and  P1_5
REMARK    3  A    between atoms: P1_5  and  O3_7
REMARK    4  A    between atoms: P1_5  and  O4_8
REMARK                            x       y       z     vdW  Elec       q    Type
REMARK                         _______ _______ _______ _____ _____    ______ ____
ROOT
ATOM      1  P1  UNL     1     147.256 164.626 169.662  0.00  0.00    +0.000 P 
ATOM      2  O2  UNL     1     148.208 165.080 170.741  0.00  0.00    +0.000 OA
ENDROOT
BRANCH   1   6
ATOM      3  C1  UNL     1     146.099 163.871 166.749  0.00  0.00    +0.000 C 
ATOM      4  C2  UNL     1     147.471 164.534 166.816  0.00  0.00    +0.000 C 
ATOM      5  O1  UNL     1     148.500 163.842 167.444  0.00  0.00    +0.000 OA
ATOM      6  C3  UNL     1     147.927 165.071 168.060  0.00  0.00    +0.000 C 
ENDBRANCH   1   6
BRANCH   1   7
ATOM      7  O3  UNL     1     146.989 162.993 169.819  0.00  0.00    +0.000 OA
ATOM      8  H6  UNL     1     147.297 162.602 170.667  0.00  0.00    +0.000 HD
ENDBRANCH   1   7
BRANCH   1   9
ATOM      9  O4  UNL     1     145.750 165.428 169.811  0.00  0.00    +0.000 OA
ATOM     10  H7  UNL     1     145.301 165.106 170.607  0.00  0.00    +0.000 HD
ENDBRANCH   1   9
TORSDOF 3
ENDMDL
MODEL 4
REMARK VINA RESULT:      -3.0      1.867      3.414
REMARK  Name = ./3D_structures\o63_MMV002354_3D.pdb
REMARK  4 active torsions:
REMARK  status: ('A' for Active; 'I' for Inactive)
REMARK    1  A    between atoms: C1_1  and  C2_2
REMARK    2  A    between atoms: C3_4  and  P1_5
REMARK    3  A    between atoms: P1_5  and  O3_7
REMARK    4  A    between atoms: P1_5  and  O4_8
REMARK                            x       y       z     vdW  Elec       q    Type
REMARK                         _______ _______ _______ _____ _____    ______ ____
ROOT
ATOM      1  P1  UNL     1     146.412 164.391 166.353  0.00  0.00    +0.000 P 
ATOM      2  O2  UNL     1     145.486 164.484 165.166  0.00  0.00    +0.000 OA
ENDROOT
BRANCH   1   6
ATOM      3  C1  UNL     1     147.448 164.496 169.405  0.00  0.00    +0.000 C 
ATOM      4  C2  UNL     1     146.095 165.127 169.094  0.00  0.00    +0.000 C 
ATOM      5  O1  UNL     1     145.073 164.296 168.651  0.00  0.00    +0.000 OA
ATOM      6  C3  UNL     1     145.696 165.287 167.731  0.00  0.00    +0.000 C 
ENDBRANCH   1   6
BRANCH   1   7
ATOM      7  O3  UNL     1     146.695 162.790 166.702  0.00  0.00    +0.000 OA
ATOM      8  H6  UNL     1     147.640 162.554 166.831  0.00  0.00    +0.000 HD
ENDBRANCH   1   7
BRANCH   1   9
ATOM      9  O4  UNL     1     147.916 165.132 166.004  0.00  0.00    +0.000 OA
ATOM     10  H7  UNL     1     148.629 164.517 166.233  0.00  0.00    +0.000 HD
ENDBRANCH   1   9
TORSDOF 3
ENDMDL
MODEL 5
REMARK VINA RESULT:      -3.0      1.362      2.492
REMARK  Name = ./3D_structures\o63_MMV002354_3D.pdb
REMARK  4 active torsions:
REMARK  status: ('A' for Active; 'I' for Inactive)
REMARK    1  A    between atoms: C1_1  and  C2_2
REMARK    2  A    between atoms: C3_4  and  P1_5
REMARK    3  A    between atoms: P1_5  and  O3_7
REMARK    4  A    between atoms: P1_5  and  O4_8
REMARK                            x       y       z     vdW  Elec       q    Type
REMARK                         _______ _______ _______ _____ _____    ______ ____
ROOT
ATOM      1  P1  UNL     1     145.842 164.120 168.928  0.00  0.00    +0.000 P 
ATOM      2  O2  UNL     1     144.486 163.916 168.300  0.00  0.00    +0.000 OA
ENDROOT
BRANCH   1   6
ATOM      3  C1  UNL     1     149.003 164.674 169.233  0.00  0.00    +0.000 C 
ATOM      4  C2  UNL     1     148.441 164.544 167.822  0.00  0.00    +0.000 C 
ATOM      5  O1  UNL     1     147.525 165.498 167.394  0.00  0.00    +0.000 OA
ATOM      6  C3  UNL     1     147.095 164.094 167.646  0.00  0.00    +0.000 C 
ENDBRANCH   1   6
BRANCH   1   7
ATOM      7  O3  UNL     1     145.835 165.539 169.795  0.00  0.00    +0.000 OA
ATOM      8  H6  UNL     1     145.354 166.282 169.369  0.00  0.00    +0.000 HD
ENDBRANCH   1   7
BRANCH   1   9
ATOM      9  O4  UNL     1     146.206 162.840 170.006  0.00  0.00    +0.000 OA
ATOM     10  H7  UNL     1     146.792 162.210 169.558  0.00  0.00    +0.000 HD
ENDBRANCH   1   9
TORSDOF 3
ENDMDL
MODEL 6
REMARK VINA RESULT:      -3.0      1.299      1.340
REMARK  Name = ./3D_structures\o63_MMV002354_3D.pdb
REMARK  4 active torsions:
REMARK  status: ('A' for Active; 'I' for Inactive)
REMARK    1  A    between atoms: C1_1  and  C2_2
REMARK    2  A    between atoms: C3_4  and  P1_5
REMARK    3  A    between atoms: P1_5  and  O3_7
REMARK    4  A    between atoms: P1_5  and  O4_8
REMARK                            x       y       z     vdW  Elec       q    Type
REMARK                         _______ _______ _______ _____ _____    ______ ____
ROOT
ATOM      1  P1  UNL     1     146.471 163.973 169.605  0.00  0.00    +0.000 P 
ATOM      2  O2  UNL     1     146.010 162.831 170.477  0.00  0.00    +0.000 OA
ENDROOT
BRANCH   1   6
ATOM      3  C1  UNL     1     147.876 165.530 167.157  0.00  0.00    +0.000 C 
ATOM      4  C2  UNL     1     148.283 164.081 167.401  0.00  0.00    +0.000 C 
ATOM      5  O1  UNL     1     147.316 163.096 167.239  0.00  0.00    +0.000 OA
ATOM      6  C3  UNL     1     147.844 163.424 168.592  0.00  0.00    +0.000 C 
ENDBRANCH   1   6
BRANCH   1   7
ATOM      7  O3  UNL     1     145.186 164.527 168.706  0.00  0.00    +0.000 OA
ATOM      8  H6  UNL     1     144.481 164.975 169.223  0.00  0.00    +0.000 HD
ENDBRANCH   1   7
BRANCH   1   9
ATOM      9  O4  UNL     1     147.046 165.270 170.564  0.00  0.00    +0.000 OA
ATOM     10  H7  UNL     1     146.921 165.047 171.500  0.00  0.00    +0.000 HD
ENDBRANCH   1   9
TORSDOF 3
ENDMDL
MODEL 7
REMARK VINA RESULT:      -2.9      2.037      2.878
REMARK  Name = ./3D_structures\o63_MMV002354_3D.pdb
REMARK  4 active torsions:
REMARK  status: ('A' for Active; 'I' for Inactive)
REMARK    1  A    between atoms: C1_1  and  C2_2
REMARK    2  A    between atoms: C3_4  and  P1_5
REMARK    3  A    between atoms: P1_5  and  O3_7
REMARK    4  A    between atoms: P1_5  and  O4_8
REMARK                            x       y       z     vdW  Elec       q    Type
REMARK                         _______ _______ _______ _____ _____    ______ ____
ROOT
ATOM      1  P1  UNL     1     146.451 164.131 169.588  0.00  0.00    +0.000 P 
ATOM      2  O2  UNL     1     145.309 164.635 168.741  0.00  0.00    +0.000 OA
ENDROOT
BRANCH   1   6
ATOM      3  C1  UNL     1     146.420 161.707 167.462  0.00  0.00    +0.000 C 
ATOM      4  C2  UNL     1     147.757 162.381 167.748  0.00  0.00    +0.000 C 
ATOM      5  O1  UNL     1     148.278 162.278 169.032  0.00  0.00    +0.000 OA
ATOM      6  C3  UNL     1     147.782 163.585 168.518  0.00  0.00    +0.000 C 
ENDBRANCH   1   6
BRANCH   1   7
ATOM      7  O3  UNL     1     146.920 165.328 170.642  0.00  0.00    +0.000 OA
ATOM      8  H6  UNL     1     146.787 166.245 170.314  0.00  0.00    +0.000 HD
ENDBRANCH   1   7
BRANCH   1   9
ATOM      9  O4  UNL     1     145.963 162.772 170.509  0.00  0.00    +0.000 OA
ATOM     10  H7  UNL     1     145.319 162.260 169.996  0.00  0.00    +0.000 HD
ENDBRANCH   1   9
TORSDOF 3
ENDMDL
MODEL 8
REMARK VINA RESULT:      -2.9      1.562      2.511
REMARK  Name = ./3D_structures\o63_MMV002354_3D.pdb
REMARK  4 active torsions:
REMARK  status: ('A' for Active; 'I' for Inactive)
REMARK    1  A    between atoms: C1_1  and  C2_2
REMARK    2  A    between atoms: C3_4  and  P1_5
REMARK    3  A    between atoms: P1_5  and  O3_7
REMARK    4  A    between atoms: P1_5  and  O4_8
REMARK                            x       y       z     vdW  Elec       q    Type
REMARK                         _______ _______ _______ _____ _____    ______ ____
ROOT
ATOM      1  P1  UNL     1     146.074 162.418 168.479  0.00  0.00    +0.000 P 
ATOM      2  O2  UNL     1     146.535 161.882 167.146  0.00  0.00    +0.000 OA
ENDROOT
BRANCH   1   6
ATOM      3  C1  UNL     1     147.107 165.214 167.251  0.00  0.00    +0.000 C 
ATOM      4  C2  UNL     1     145.707 165.180 167.855  0.00  0.00    +0.000 C 
ATOM      5  O1  UNL     1     145.589 164.928 169.217  0.00  0.00    +0.000 OA
ATOM      6  C3  UNL     1     145.134 163.921 168.218  0.00  0.00    +0.000 C 
ENDBRANCH   1   6
BRANCH   1   7
ATOM      7  O3  UNL     1     145.205 161.241 169.270  0.00  0.00    +0.000 OA
ATOM      8  H6  UNL     1     145.286 161.253 170.249  0.00  0.00    +0.000 HD
ENDBRANCH   1   7
BRANCH   1   9
ATOM      9  O4  UNL     1     147.417 162.834 169.458  0.00  0.00    +0.000 OA
ATOM     10  H7  UNL     1     147.119 162.926 170.377  0.00  0.00    +0.000 HD
ENDBRANCH   1   9
TORSDOF 3
ENDMDL
MODEL 9
REMARK VINA RESULT:      -2.8     11.383     12.153
REMARK  Name = ./3D_structures\o63_MMV002354_3D.pdb
REMARK  4 active torsions:
REMARK  status: ('A' for Active; 'I' for Inactive)
REMARK    1  A    between atoms: C1_1  and  C2_2
REMARK    2  A    between atoms: C3_4  and  P1_5
REMARK    3  A    between atoms: P1_5  and  O3_7
REMARK    4  A    between atoms: P1_5  and  O4_8
REMARK                            x       y       z     vdW  Elec       q    Type
REMARK                         _______ _______ _______ _____ _____    ______ ____
ROOT
ATOM      1  P1  UNL     1     156.331 157.941 170.621  0.00  0.00    +0.000 P 
ATOM      2  O2  UNL     1     157.481 158.196 171.564  0.00  0.00    +0.000 OA
ENDROOT
BRANCH   1   6
ATOM      3  C1  UNL     1     154.637 157.571 167.903  0.00  0.00    +0.000 C 
ATOM      4  C2  UNL     1     156.140 157.792 167.776  0.00  0.00    +0.000 C 
ATOM      5  O1  UNL     1     156.988 156.822 168.298  0.00  0.00    +0.000 OA
ATOM      6  C3  UNL     1     156.891 158.166 168.933  0.00  0.00    +0.000 C 
ENDBRANCH   1   6
BRANCH   1   7
ATOM      7  O3  UNL     1     155.721 156.419 170.902  0.00  0.00    +0.000 OA
ATOM      8  H6  UNL     1     155.171 156.337 171.712  0.00  0.00    +0.000 HD
ENDBRANCH   1   7
BRANCH   1   9
ATOM      9  O4  UNL     1     155.074 159.074 170.884  0.00  0.00    +0.000 OA
ATOM     10  H7  UNL     1     155.086 159.346 171.815  0.00  0.00    +0.000 HD
ENDBRANCH   1   9
TORSDOF 3
ENDMDL
