MODEL 1
REMARK VINA RESULT:      -6.1      0.000      0.000
REMARK  Name = ./3D_structures\o64_MMV1581557_3D.pdb
REMARK  11 active torsions:
REMARK  status: ('A' for Active; 'I' for Inactive)
REMARK    1  A    between atoms: O1_1  and  C1_2
REMARK    2  A    between atoms: C1_2  and  C2_4
REMARK    3  A    between atoms: C2_4  and  C3_5
REMARK    4  A    between atoms: C2_4  and  N1_12
REMARK    5  A    between atoms: C3_5  and  C4_6
REMARK    6  A    between atoms: C10_13  and  C11_15
REMARK    7  A    between atoms: C11_15  and  C12_16
REMARK    8  A    between atoms: C11_15  and  N2_19
REMARK    9  A    between atoms: C12_16  and  C13_17
REMARK   10  A    between atoms: C13_17  and  S1_18
REMARK   11  A    between atoms: C14_20  and  C15_22
REMARK                            x       y       z     vdW  Elec       q    Type
REMARK                         _______ _______ _______ _____ _____    ______ ____
ROOT
ATOM      1  C11 UNL     1     150.713 163.515 166.706  0.00  0.00    +0.000 C 
ENDROOT
BRANCH   1   3
ATOM      2  N1  UNL     1     148.775 164.424 168.096  0.00  0.00    +0.000 N 
ATOM      3  C10 UNL     1     149.365 163.400 167.318  0.00  0.00    +0.000 C 
ATOM      4  O3  UNL     1     148.659 162.345 167.164  0.00  0.00    +0.000 OA
ATOM      5  H10 UNL     1     149.287 165.310 168.266  0.00  0.00    +0.000 HD
BRANCH   2   6
ATOM      6  C2  UNL     1     147.434 164.288 168.693  0.00  0.00    +0.000 C 
BRANCH   6   7
ATOM      7  C1  UNL     1     147.446 164.700 170.108  0.00  0.00    +0.000 C 
ATOM      8  O2  UNL     1     148.517 165.026 170.694  0.00  0.00    +0.000 OA
BRANCH   7   9
ATOM      9  O1  UNL     1     146.275 164.739 170.825  0.00  0.00    +0.000 OA
ATOM     10  H1  UNL     1     146.076 164.005 171.521  0.00  0.00    +0.000 HD
ENDBRANCH   7   9
ENDBRANCH   6   7
BRANCH   6  11
ATOM     11  C3  UNL     1     146.540 165.148 167.823  0.00  0.00    +0.000 C 
BRANCH  11  12
ATOM     12  C4  UNL     1     145.540 164.395 167.063  0.00  0.00    +0.000 A 
ATOM     13  C5  UNL     1     144.433 163.860 167.681  0.00  0.00    +0.000 A 
ATOM     14  C6  UNL     1     143.515 163.156 166.931  0.00  0.00    +0.000 A 
ATOM     15  C7  UNL     1     143.689 162.982 165.584  0.00  0.00    +0.000 A 
ATOM     16  C8  UNL     1     144.806 163.522 164.962  0.00  0.00    +0.000 A 
ATOM     17  C9  UNL     1     145.726 164.227 165.709  0.00  0.00    +0.000 A 
ENDBRANCH  11  12
ENDBRANCH   6  11
ENDBRANCH   2   6
ENDBRANCH   1   3
BRANCH   1  18
ATOM     18  N2  UNL     1     151.581 162.453 167.104  0.00  0.00    +0.000 N 
ATOM     19  C14 UNL     1     151.996 161.420 166.226  0.00  0.00    +0.000 C 
ATOM     20  O4  UNL     1     151.597 161.404 165.013  0.00  0.00    +0.000 OA
ATOM     21  H17 UNL     1     151.932 162.426 168.084  0.00  0.00    +0.000 HD
BRANCH  19  22
ATOM     22  C15 UNL     1     152.880 160.372 166.701  0.00  0.00    +0.000 A 
ATOM     23  C16 UNL     1     153.839 159.757 165.937  0.00  0.00    +0.000 A 
ATOM     24  C17 UNL     1     154.478 158.821 166.719  0.00  0.00    +0.000 A 
ATOM     25  C18 UNL     1     155.519 157.930 166.435  0.00  0.00    +0.000 A 
ATOM     26  C19 UNL     1     155.980 157.085 167.417  0.00  0.00    +0.000 A 
ATOM     27  C20 UNL     1     155.391 157.146 168.660  0.00  0.00    +0.000 A 
ATOM     28  C21 UNL     1     154.366 158.023 168.941  0.00  0.00    +0.000 A 
ATOM     29  C22 UNL     1     153.887 158.888 167.955  0.00  0.00    +0.000 A 
ATOM     30  N3  UNL     1     152.930 159.825 167.924  0.00  0.00    +0.000 N 
ATOM     31  H23 UNL     1     152.313 160.086 168.748  0.00  0.00    +0.000 HD
ENDBRANCH  19  22
ENDBRANCH   1  18
BRANCH   1  32
ATOM     32  C12 UNL     1     151.280 164.891 166.921  0.00  0.00    +0.000 C 
BRANCH  32  33
ATOM     33  C13 UNL     1     151.273 165.730 165.675  0.00  0.00    +0.000 C 
BRANCH  33  34
ATOM     34  S1  UNL     1     152.350 164.976 164.425  0.00  0.00    +0.000 S 
ATOM     35  H16 UNL     1     153.376 164.291 165.065  0.00  0.00    +0.000 HD
ENDBRANCH  33  34
ENDBRANCH  32  33
ENDBRANCH   1  32
TORSDOF 11
ENDMDL
MODEL 2
REMARK VINA RESULT:      -6.0      5.724      8.734
REMARK  Name = ./3D_structures\o64_MMV1581557_3D.pdb
REMARK  11 active torsions:
REMARK  status: ('A' for Active; 'I' for Inactive)
REMARK    1  A    between atoms: O1_1  and  C1_2
REMARK    2  A    between atoms: C1_2  and  C2_4
REMARK    3  A    between atoms: C2_4  and  C3_5
REMARK    4  A    between atoms: C2_4  and  N1_12
REMARK    5  A    between atoms: C3_5  and  C4_6
REMARK    6  A    between atoms: C10_13  and  C11_15
REMARK    7  A    between atoms: C11_15  and  C12_16
REMARK    8  A    between atoms: C11_15  and  N2_19
REMARK    9  A    between atoms: C12_16  and  C13_17
REMARK   10  A    between atoms: C13_17  and  S1_18
REMARK   11  A    between atoms: C14_20  and  C15_22
REMARK                            x       y       z     vdW  Elec       q    Type
REMARK                         _______ _______ _______ _____ _____    ______ ____
ROOT
ATOM      1  C11 UNL     1     153.615 159.615 167.708  0.00  0.00    +0.000 C 
ENDROOT
BRANCH   1   3
ATOM      2  N1  UNL     1     154.354 159.563 170.150  0.00  0.00    +0.000 N 
ATOM      3  C10 UNL     1     154.120 160.265 168.944  0.00  0.00    +0.000 C 
ATOM      4  O3  UNL     1     154.371 161.518 168.975  0.00  0.00    +0.000 OA
ATOM      5  H10 UNL     1     154.173 158.544 170.204  0.00  0.00    +0.000 HD
BRANCH   2   6
ATOM      6  C2  UNL     1     154.856 160.230 171.366  0.00  0.00    +0.000 C 
BRANCH   6   7
ATOM      7  C1  UNL     1     153.818 160.265 172.411  0.00  0.00    +0.000 C 
ATOM      8  O2  UNL     1     152.596 160.409 172.126  0.00  0.00    +0.000 OA
BRANCH   7   9
ATOM      9  O1  UNL     1     154.167 160.138 173.734  0.00  0.00    +0.000 OA
ATOM     10  H1  UNL     1     153.438 160.180 174.461  0.00  0.00    +0.000 HD
ENDBRANCH   7   9
ENDBRANCH   6   7
BRANCH   6  11
ATOM     11  C3  UNL     1     156.082 159.431 171.760  0.00  0.00    +0.000 C 
BRANCH  11  12
ATOM     12  C4  UNL     1     157.199 159.541 170.818  0.00  0.00    +0.000 A 
ATOM     13  C5  UNL     1     157.618 160.767 170.355  0.00  0.00    +0.000 A 
ATOM     14  C6  UNL     1     158.672 160.829 169.467  0.00  0.00    +0.000 A 
ATOM     15  C7  UNL     1     159.304 159.691 169.043  0.00  0.00    +0.000 A 
ATOM     16  C8  UNL     1     158.880 158.455 169.511  0.00  0.00    +0.000 A 
ATOM     17  C9  UNL     1     157.827 158.390 170.400  0.00  0.00    +0.000 A 
ENDBRANCH  11  12
ENDBRANCH   6  11
ENDBRANCH   2   6
ENDBRANCH   1   3
BRANCH   1  18
ATOM     18  N2  UNL     1     154.658 158.988 166.961  0.00  0.00    +0.000 N 
ATOM     19  C14 UNL     1     155.109 157.668 167.215  0.00  0.00    +0.000 C 
ATOM     20  O4  UNL     1     154.581 156.973 168.148  0.00  0.00    +0.000 OA
ATOM     21  H17 UNL     1     155.117 159.517 166.191  0.00  0.00    +0.000 HD
BRANCH  19  22
ATOM     22  C15 UNL     1     156.175 157.096 166.414  0.00  0.00    +0.000 A 
ATOM     23  C16 UNL     1     157.507 157.390 166.567  0.00  0.00    +0.000 A 
ATOM     24  C17 UNL     1     158.218 156.663 165.639  0.00  0.00    +0.000 A 
ATOM     25  C18 UNL     1     159.589 156.592 165.368  0.00  0.00    +0.000 A 
ATOM     26  C19 UNL     1     160.045 155.769 164.366  0.00  0.00    +0.000 A 
ATOM     27  C20 UNL     1     159.122 155.036 163.653  0.00  0.00    +0.000 A 
ATOM     28  C21 UNL     1     157.771 155.105 163.918  0.00  0.00    +0.000 A 
ATOM     29  C22 UNL     1     157.292 155.935 164.933  0.00  0.00    +0.000 A 
ATOM     30  N3  UNL     1     156.072 156.209 165.414  0.00  0.00    +0.000 N 
ATOM     31  H23 UNL     1     155.170 155.783 165.051  0.00  0.00    +0.000 HD
ENDBRANCH  19  22
ENDBRANCH   1  18
BRANCH   1  32
ATOM     32  C12 UNL     1     152.771 160.570 166.910  0.00  0.00    +0.000 C 
BRANCH  32  33
ATOM     33  C13 UNL     1     153.268 160.760 165.506  0.00  0.00    +0.000 C 
BRANCH  33  34
ATOM     34  S1  UNL     1     152.264 162.016 164.666  0.00  0.00    +0.000 S 
ATOM     35  H16 UNL     1     150.961 161.548 164.548  0.00  0.00    +0.000 HD
ENDBRANCH  33  34
ENDBRANCH  32  33
ENDBRANCH   1  32
TORSDOF 11
ENDMDL
MODEL 3
REMARK VINA RESULT:      -5.9      0.734      1.197
REMARK  Name = ./3D_structures\o64_MMV1581557_3D.pdb
REMARK  11 active torsions:
REMARK  status: ('A' for Active; 'I' for Inactive)
REMARK    1  A    between atoms: O1_1  and  C1_2
REMARK    2  A    between atoms: C1_2  and  C2_4
REMARK    3  A    between atoms: C2_4  and  C3_5
REMARK    4  A    between atoms: C2_4  and  N1_12
REMARK    5  A    between atoms: C3_5  and  C4_6
REMARK    6  A    between atoms: C10_13  and  C11_15
REMARK    7  A    between atoms: C11_15  and  C12_16
REMARK    8  A    between atoms: C11_15  and  N2_19
REMARK    9  A    between atoms: C12_16  and  C13_17
REMARK   10  A    between atoms: C13_17  and  S1_18
REMARK   11  A    between atoms: C14_20  and  C15_22
REMARK                            x       y       z     vdW  Elec       q    Type
REMARK                         _______ _______ _______ _____ _____    ______ ____
ROOT
ATOM      1  C11 UNL     1     150.879 162.917 166.650  0.00  0.00    +0.000 C 
ENDROOT
BRANCH   1   3
ATOM      2  N1  UNL     1     149.129 164.143 168.046  0.00  0.00    +0.000 N 
ATOM      3  C10 UNL     1     149.553 163.010 167.310  0.00  0.00    +0.000 C 
ATOM      4  O3  UNL     1     148.713 162.049 167.242  0.00  0.00    +0.000 OA
ATOM      5  H10 UNL     1     149.756 164.963 168.147  0.00  0.00    +0.000 HD
BRANCH   2   6
ATOM      6  C2  UNL     1     147.807 164.214 168.692  0.00  0.00    +0.000 C 
BRANCH   6   7
ATOM      7  C1  UNL     1     147.917 164.773 170.051  0.00  0.00    +0.000 C 
ATOM      8  O2  UNL     1     149.005 164.745 170.693  0.00  0.00    +0.000 OA
BRANCH   7   9
ATOM      9  O1  UNL     1     146.821 165.345 170.653  0.00  0.00    +0.000 OA
ATOM     10  H1  UNL     1     145.887 165.221 170.238  0.00  0.00    +0.000 HD
ENDBRANCH   7   9
ENDBRANCH   6   7
BRANCH   6  11
ATOM     11  C3  UNL     1     146.970 165.063 167.757  0.00  0.00    +0.000 C 
BRANCH  11  12
ATOM     12  C4  UNL     1     145.841 164.354 167.150  0.00  0.00    +0.000 A 
ATOM     13  C5  UNL     1     145.817 164.081 165.801  0.00  0.00    +0.000 A 
ATOM     14  C6  UNL     1     144.735 163.413 165.267  0.00  0.00    +0.000 A 
ATOM     15  C7  UNL     1     143.689 163.019 166.058  0.00  0.00    +0.000 A 
ATOM     16  C8  UNL     1     143.715 163.295 167.418  0.00  0.00    +0.000 A 
ATOM     17  C9  UNL     1     144.796 163.963 167.955  0.00  0.00    +0.000 A 
ENDBRANCH  11  12
ENDBRANCH   6  11
ENDBRANCH   2   6
ENDBRANCH   1   3
BRANCH   1  18
ATOM     18  N2  UNL     1     151.740 161.976 167.294  0.00  0.00    +0.000 N 
ATOM     19  C14 UNL     1     152.373 160.908 166.608  0.00  0.00    +0.000 C 
ATOM     20  O4  UNL     1     152.190 160.747 165.355  0.00  0.00    +0.000 OA
ATOM     21  H17 UNL     1     151.918 162.070 168.315  0.00  0.00    +0.000 HD
BRANCH  19  22
ATOM     22  C15 UNL     1     153.234 159.990 167.329  0.00  0.00    +0.000 A 
ATOM     23  C16 UNL     1     154.097 159.104 166.735  0.00  0.00    +0.000 A 
ATOM     24  C17 UNL     1     154.745 158.403 167.727  0.00  0.00    +0.000 A 
ATOM     25  C18 UNL     1     155.713 157.393 167.669  0.00  0.00    +0.000 A 
ATOM     26  C19 UNL     1     156.204 156.851 168.833  0.00  0.00    +0.000 A 
ATOM     27  C20 UNL     1     155.716 157.327 170.030  0.00  0.00    +0.000 A 
ATOM     28  C21 UNL     1     154.764 158.321 170.089  0.00  0.00    +0.000 A 
ATOM     29  C22 UNL     1     154.255 158.882 168.916  0.00  0.00    +0.000 A 
ATOM     30  N3  UNL     1     153.350 159.834 168.656  0.00  0.00    +0.000 N 
ATOM     31  H23 UNL     1     152.813 160.375 169.395  0.00  0.00    +0.000 HD
ENDBRANCH  19  22
ENDBRANCH   1  18
BRANCH   1  32
ATOM     32  C12 UNL     1     151.482 164.283 166.468  0.00  0.00    +0.000 C 
BRANCH  32  33
ATOM     33  C13 UNL     1     151.395 164.779 165.053  0.00  0.00    +0.000 C 
BRANCH  33  34
ATOM     34  S1  UNL     1     152.752 164.075 164.075  0.00  0.00    +0.000 S 
ATOM     35  H16 UNL     1     153.883 163.976 164.876  0.00  0.00    +0.000 HD
ENDBRANCH  33  34
ENDBRANCH  32  33
ENDBRANCH   1  32
TORSDOF 11
ENDMDL
MODEL 4
REMARK VINA RESULT:      -5.9      5.832      9.618
REMARK  Name = ./3D_structures\o64_MMV1581557_3D.pdb
REMARK  11 active torsions:
REMARK  status: ('A' for Active; 'I' for Inactive)
REMARK    1  A    between atoms: O1_1  and  C1_2
REMARK    2  A    between atoms: C1_2  and  C2_4
REMARK    3  A    between atoms: C2_4  and  C3_5
REMARK    4  A    between atoms: C2_4  and  N1_12
REMARK    5  A    between atoms: C3_5  and  C4_6
REMARK    6  A    between atoms: C10_13  and  C11_15
REMARK    7  A    between atoms: C11_15  and  C12_16
REMARK    8  A    between atoms: C11_15  and  N2_19
REMARK    9  A    between atoms: C12_16  and  C13_17
REMARK   10  A    between atoms: C13_17  and  S1_18
REMARK   11  A    between atoms: C14_20  and  C15_22
REMARK                            x       y       z     vdW  Elec       q    Type
REMARK                         _______ _______ _______ _____ _____    ______ ____
ROOT
ATOM      1  C11 UNL     1     153.031 160.099 169.453  0.00  0.00    +0.000 C 
ENDROOT
BRANCH   1   3
ATOM      2  N1  UNL     1     154.957 159.589 171.047  0.00  0.00    +0.000 N 
ATOM      3  C10 UNL     1     154.385 160.355 170.005  0.00  0.00    +0.000 C 
ATOM      4  O3  UNL     1     155.113 161.303 169.551  0.00  0.00    +0.000 OA
ATOM      5  H10 UNL     1     154.427 158.803 171.467  0.00  0.00    +0.000 HD
BRANCH   2   6
ATOM      6  C2  UNL     1     156.305 159.861 171.579  0.00  0.00    +0.000 C 
BRANCH   6   7
ATOM      7  C1  UNL     1     156.231 160.345 172.969  0.00  0.00    +0.000 C 
ATOM      8  O2  UNL     1     156.878 161.361 173.352  0.00  0.00    +0.000 OA
BRANCH   7   9
ATOM      9  O1  UNL     1     155.445 159.691 173.887  0.00  0.00    +0.000 OA
ATOM     10  H1  UNL     1     154.485 159.416 173.635  0.00  0.00    +0.000 HD
ENDBRANCH   7   9
ENDBRANCH   6   7
BRANCH   6  11
ATOM     11  C3  UNL     1     157.044 158.546 171.437  0.00  0.00    +0.000 C 
BRANCH  11  12
ATOM     12  C4  UNL     1     157.512 158.264 170.078  0.00  0.00    +0.000 A 
ATOM     13  C5  UNL     1     156.769 157.489 169.217  0.00  0.00    +0.000 A 
ATOM     14  C6  UNL     1     157.245 157.245 167.946  0.00  0.00    +0.000 A 
ATOM     15  C7  UNL     1     158.443 157.762 167.531  0.00  0.00    +0.000 A 
ATOM     16  C8  UNL     1     159.191 158.544 168.400  0.00  0.00    +0.000 A 
ATOM     17  C9  UNL     1     158.717 158.791 169.672  0.00  0.00    +0.000 A 
ENDBRANCH  11  12
ENDBRANCH   6  11
ENDBRANCH   2   6
ENDBRANCH   1   3
BRANCH   1  18
ATOM     18  N2  UNL     1     152.421 158.943 170.028  0.00  0.00    +0.000 N 
ATOM     19  C14 UNL     1     151.068 158.908 170.452  0.00  0.00    +0.000 C 
ATOM     20  O4  UNL     1     150.327 159.941 170.329  0.00  0.00    +0.000 OA
ATOM     21  H17 UNL     1     152.988 158.078 170.147  0.00  0.00    +0.000 HD
BRANCH  19  22
ATOM     22  C15 UNL     1     150.517 157.697 171.028  0.00  0.00    +0.000 A 
ATOM     23  C16 UNL     1     150.872 156.425 170.655  0.00  0.00    +0.000 A 
ATOM     24  C17 UNL     1     150.147 155.535 171.415  0.00  0.00    +0.000 A 
ATOM     25  C18 UNL     1     150.126 154.136 171.436  0.00  0.00    +0.000 A 
ATOM     26  C19 UNL     1     149.291 153.479 172.310  0.00  0.00    +0.000 A 
ATOM     27  C20 UNL     1     148.495 154.234 173.142  0.00  0.00    +0.000 A 
ATOM     28  C21 UNL     1     148.514 155.611 173.123  0.00  0.00    +0.000 A 
ATOM     29  C22 UNL     1     149.356 156.293 172.242  0.00  0.00    +0.000 A 
ATOM     30  N3  UNL     1     149.593 157.588 171.995  0.00  0.00    +0.000 N 
ATOM     31  H23 UNL     1     149.117 158.395 172.493  0.00  0.00    +0.000 HD
ENDBRANCH  19  22
ENDBRANCH   1  18
BRANCH   1  32
ATOM     32  C12 UNL     1     153.058 160.101 167.949  0.00  0.00    +0.000 C 
BRANCH  32  33
ATOM     33  C13 UNL     1     153.840 158.953 167.375  0.00  0.00    +0.000 C 
BRANCH  33  34
ATOM     34  S1  UNL     1     154.824 159.529 165.965  0.00  0.00    +0.000 S 
ATOM     35  H16 UNL     1     154.742 160.914 165.891  0.00  0.00    +0.000 HD
ENDBRANCH  33  34
ENDBRANCH  32  33
ENDBRANCH   1  32
TORSDOF 11
ENDMDL
MODEL 5
REMARK VINA RESULT:      -5.8      8.728     11.104
REMARK  Name = ./3D_structures\o64_MMV1581557_3D.pdb
REMARK  11 active torsions:
REMARK  status: ('A' for Active; 'I' for Inactive)
REMARK    1  A    between atoms: O1_1  and  C1_2
REMARK    2  A    between atoms: C1_2  and  C2_4
REMARK    3  A    between atoms: C2_4  and  C3_5
REMARK    4  A    between atoms: C2_4  and  N1_12
REMARK    5  A    between atoms: C3_5  and  C4_6
REMARK    6  A    between atoms: C10_13  and  C11_15
REMARK    7  A    between atoms: C11_15  and  C12_16
REMARK    8  A    between atoms: C11_15  and  N2_19
REMARK    9  A    between atoms: C12_16  and  C13_17
REMARK   10  A    between atoms: C13_17  and  S1_18
REMARK   11  A    between atoms: C14_20  and  C15_22
REMARK                            x       y       z     vdW  Elec       q    Type
REMARK                         _______ _______ _______ _____ _____    ______ ____
ROOT
ATOM      1  C11 UNL     1     159.045 157.134 165.057  0.00  0.00    +0.000 C 
ENDROOT
BRANCH   1   3
ATOM      2  N1  UNL     1     157.364 157.109 166.977  0.00  0.00    +0.000 N 
ATOM      3  C10 UNL     1     158.103 157.803 165.989  0.00  0.00    +0.000 C 
ATOM      4  O3  UNL     1     157.912 159.066 165.941  0.00  0.00    +0.000 OA
ATOM      5  H10 UNL     1     157.465 156.082 167.077  0.00  0.00    +0.000 HD
BRANCH   2   6
ATOM      6  C2  UNL     1     156.435 157.793 167.893  0.00  0.00    +0.000 C 
BRANCH   6   7
ATOM      7  C1  UNL     1     155.037 157.447 167.578  0.00  0.00    +0.000 C 
ATOM      8  O2  UNL     1     154.548 157.648 166.430  0.00  0.00    +0.000 OA
BRANCH   7   9
ATOM      9  O1  UNL     1     154.230 156.890 168.541  0.00  0.00    +0.000 OA
ATOM     10  H1  UNL     1     154.547 156.864 169.521  0.00  0.00    +0.000 HD
ENDBRANCH   7   9
ENDBRANCH   6   7
BRANCH   6  11
ATOM     11  C3  UNL     1     156.867 157.352 169.276  0.00  0.00    +0.000 C 
BRANCH  11  12
ATOM     12  C4  UNL     1     156.879 158.425 170.273  0.00  0.00    +0.000 A 
ATOM     13  C5  UNL     1     156.310 158.248 171.514  0.00  0.00    +0.000 A 
ATOM     14  C6  UNL     1     156.339 159.284 172.424  0.00  0.00    +0.000 A 
ATOM     15  C7  UNL     1     156.925 160.482 172.110  0.00  0.00    +0.000 A 
ATOM     16  C8  UNL     1     157.498 160.659 170.859  0.00  0.00    +0.000 A 
ATOM     17  C9  UNL     1     157.471 159.624 169.947  0.00  0.00    +0.000 A 
ENDBRANCH  11  12
ENDBRANCH   6  11
ENDBRANCH   2   6
ENDBRANCH   1   3
BRANCH   1  18
ATOM     18  N2  UNL     1     158.878 155.716 165.041  0.00  0.00    +0.000 N 
ATOM     19  C14 UNL     1     158.087 155.037 164.080  0.00  0.00    +0.000 C 
ATOM     20  O4  UNL     1     157.479 155.691 163.166  0.00  0.00    +0.000 OA
ATOM     21  H17 UNL     1     159.355 155.142 165.767  0.00  0.00    +0.000 HD
BRANCH  19  22
ATOM     22  C15 UNL     1     157.963 153.593 164.127  0.00  0.00    +0.000 A 
ATOM     23  C16 UNL     1     158.941 152.742 164.575  0.00  0.00    +0.000 A 
ATOM     24  C17 UNL     1     158.470 151.452 164.475  0.00  0.00    +0.000 A 
ATOM     25  C18 UNL     1     159.058 150.222 164.791  0.00  0.00    +0.000 A 
ATOM     26  C19 UNL     1     158.355 149.058 164.589  0.00  0.00    +0.000 A 
ATOM     27  C20 UNL     1     157.081 149.147 164.073  0.00  0.00    +0.000 A 
ATOM     28  C21 UNL     1     156.501 150.357 163.760  0.00  0.00    +0.000 A 
ATOM     29  C22 UNL     1     157.201 151.548 163.960  0.00  0.00    +0.000 A 
ATOM     30  N3  UNL     1     156.915 152.841 163.759  0.00  0.00    +0.000 N 
ATOM     31  H23 UNL     1     155.997 153.203 163.367  0.00  0.00    +0.000 HD
ENDBRANCH  19  22
ENDBRANCH   1  18
BRANCH   1  32
ATOM     32  C12 UNL     1     160.456 157.588 165.308  0.00  0.00    +0.000 C 
BRANCH  32  33
ATOM     33  C13 UNL     1     161.035 158.365 164.160  0.00  0.00    +0.000 C 
BRANCH  33  34
ATOM     34  S1  UNL     1     162.837 158.471 164.341  0.00  0.00    +0.000 S 
ATOM     35  H16 UNL     1     163.135 159.097 165.546  0.00  0.00    +0.000 HD
ENDBRANCH  33  34
ENDBRANCH  32  33
ENDBRANCH   1  32
TORSDOF 11
ENDMDL
MODEL 6
REMARK VINA RESULT:      -5.6     15.346     19.445
REMARK  Name = ./3D_structures\o64_MMV1581557_3D.pdb
REMARK  11 active torsions:
REMARK  status: ('A' for Active; 'I' for Inactive)
REMARK    1  A    between atoms: O1_1  and  C1_2
REMARK    2  A    between atoms: C1_2  and  C2_4
REMARK    3  A    between atoms: C2_4  and  C3_5
REMARK    4  A    between atoms: C2_4  and  N1_12
REMARK    5  A    between atoms: C3_5  and  C4_6
REMARK    6  A    between atoms: C10_13  and  C11_15
REMARK    7  A    between atoms: C11_15  and  C12_16
REMARK    8  A    between atoms: C11_15  and  N2_19
REMARK    9  A    between atoms: C12_16  and  C13_17
REMARK   10  A    between atoms: C13_17  and  S1_18
REMARK   11  A    between atoms: C14_20  and  C15_22
REMARK                            x       y       z     vdW  Elec       q    Type
REMARK                         _______ _______ _______ _____ _____    ______ ____
ROOT
ATOM      1  C11 UNL     1     161.778 146.304 165.801  0.00  0.00    +0.000 C 
ENDROOT
BRANCH   1   3
ATOM      2  N1  UNL     1     162.014 148.036 167.661  0.00  0.00    +0.000 N 
ATOM      3  C10 UNL     1     162.277 146.752 167.126  0.00  0.00    +0.000 C 
ATOM      4  O3  UNL     1     162.983 145.980 167.860  0.00  0.00    +0.000 OA
ATOM      5  H10 UNL     1     161.449 148.718 167.123  0.00  0.00    +0.000 HD
BRANCH   2   6
ATOM      6  C2  UNL     1     162.519 148.459 168.979  0.00  0.00    +0.000 C 
BRANCH   6   7
ATOM      7  C1  UNL     1     163.156 149.785 168.895  0.00  0.00    +0.000 C 
ATOM      8  O2  UNL     1     163.373 150.347 167.784  0.00  0.00    +0.000 OA
BRANCH   7   9
ATOM      9  O1  UNL     1     163.528 150.446 170.042  0.00  0.00    +0.000 OA
ATOM     10  H1  UNL     1     163.346 151.456 170.133  0.00  0.00    +0.000 HD
ENDBRANCH   7   9
ENDBRANCH   6   7
BRANCH   6  11
ATOM     11  C3  UNL     1     161.302 148.431 169.881  0.00  0.00    +0.000 C 
BRANCH  11  12
ATOM     12  C4  UNL     1     161.208 147.237 170.726  0.00  0.00    +0.000 A 
ATOM     13  C5  UNL     1     160.256 146.273 170.488  0.00  0.00    +0.000 A 
ATOM     14  C6  UNL     1     160.198 145.165 171.307  0.00  0.00    +0.000 A 
ATOM     15  C7  UNL     1     161.073 145.012 172.349  0.00  0.00    +0.000 A 
ATOM     16  C8  UNL     1     162.034 145.986 172.587  0.00  0.00    +0.000 A 
ATOM     17  C9  UNL     1     162.094 147.095 171.769  0.00  0.00    +0.000 A 
ENDBRANCH  11  12
ENDBRANCH   6  11
ENDBRANCH   2   6
ENDBRANCH   1   3
BRANCH   1  18
ATOM     18  N2  UNL     1     160.632 147.042 165.375  0.00  0.00    +0.000 N 
ATOM     19  C14 UNL     1     160.638 147.901 164.247  0.00  0.00    +0.000 C 
ATOM     20  O4  UNL     1     161.700 148.047 163.552  0.00  0.00    +0.000 OA
ATOM     21  H17 UNL     1     159.745 146.954 165.912  0.00  0.00    +0.000 HD
BRANCH  19  22
ATOM     22  C15 UNL     1     159.435 148.621 163.873  0.00  0.00    +0.000 A 
ATOM     23  C16 UNL     1     158.741 149.462 164.706  0.00  0.00    +0.000 A 
ATOM     24  C17 UNL     1     157.663 149.962 164.012  0.00  0.00    +0.000 A 
ATOM     25  C18 UNL     1     156.648 150.849 164.388  0.00  0.00    +0.000 A 
ATOM     26  C19 UNL     1     155.671 151.191 163.483  0.00  0.00    +0.000 A 
ATOM     27  C20 UNL     1     155.726 150.638 162.223  0.00  0.00    +0.000 A 
ATOM     28  C21 UNL     1     156.724 149.764 161.851  0.00  0.00    +0.000 A 
ATOM     29  C22 UNL     1     157.724 149.408 162.758  0.00  0.00    +0.000 A 
ATOM     30  N3  UNL     1     158.796 148.606 162.695  0.00  0.00    +0.000 N 
ATOM     31  H23 UNL     1     159.084 148.049 161.838  0.00  0.00    +0.000 HD
ENDBRANCH  19  22
ENDBRANCH   1  18
BRANCH   1  32
ATOM     32  C12 UNL     1     161.595 144.811 165.777  0.00  0.00    +0.000 C 
BRANCH  32  33
ATOM     33  C13 UNL     1     160.193 144.386 166.105  0.00  0.00    +0.000 C 
BRANCH  33  34
ATOM     34  S1  UNL     1     160.158 143.601 167.740  0.00  0.00    +0.000 S 
ATOM     35  H16 UNL     1     159.768 144.542 168.686  0.00  0.00    +0.000 HD
ENDBRANCH  33  34
ENDBRANCH  32  33
ENDBRANCH   1  32
TORSDOF 11
ENDMDL
MODEL 7
REMARK VINA RESULT:      -5.5      3.010      3.402
REMARK  Name = ./3D_structures\o64_MMV1581557_3D.pdb
REMARK  11 active torsions:
REMARK  status: ('A' for Active; 'I' for Inactive)
REMARK    1  A    between atoms: O1_1  and  C1_2
REMARK    2  A    between atoms: C1_2  and  C2_4
REMARK    3  A    between atoms: C2_4  and  C3_5
REMARK    4  A    between atoms: C2_4  and  N1_12
REMARK    5  A    between atoms: C3_5  and  C4_6
REMARK    6  A    between atoms: C10_13  and  C11_15
REMARK    7  A    between atoms: C11_15  and  C12_16
REMARK    8  A    between atoms: C11_15  and  N2_19
REMARK    9  A    between atoms: C12_16  and  C13_17
REMARK   10  A    between atoms: C13_17  and  S1_18
REMARK   11  A    between atoms: C14_20  and  C15_22
REMARK                            x       y       z     vdW  Elec       q    Type
REMARK                         _______ _______ _______ _____ _____    ______ ____
ROOT
ATOM      1  C11 UNL     1     149.552 163.053 167.549  0.00  0.00    +0.000 C 
ENDROOT
BRANCH   1   3
ATOM      2  N1  UNL     1     147.085 162.505 167.194  0.00  0.00    +0.000 N 
ATOM      3  C10 UNL     1     148.214 162.633 168.037  0.00  0.00    +0.000 C 
ATOM      4  O3  UNL     1     148.018 162.361 169.271  0.00  0.00    +0.000 OA
ATOM      5  H10 UNL     1     147.165 162.709 166.181  0.00  0.00    +0.000 HD
BRANCH   2   6
ATOM      6  C2  UNL     1     145.766 162.085 167.701  0.00  0.00    +0.000 C 
BRANCH   6   7
ATOM      7  C1  UNL     1     144.846 163.233 167.782  0.00  0.00    +0.000 C 
ATOM      8  O2  UNL     1     143.596 163.090 167.666  0.00  0.00    +0.000 OA
BRANCH   7   9
ATOM      9  O1  UNL     1     145.339 164.499 167.990  0.00  0.00    +0.000 OA
ATOM     10  H1  UNL     1     144.965 165.073 168.760  0.00  0.00    +0.000 HD
ENDBRANCH   7   9
ENDBRANCH   6   7
BRANCH   6  11
ATOM     11  C3  UNL     1     145.309 161.013 166.733  0.00  0.00    +0.000 C 
BRANCH  11  12
ATOM     12  C4  UNL     1     145.878 159.688 166.991  0.00  0.00    +0.000 A 
ATOM     13  C5  UNL     1     146.150 159.271 168.274  0.00  0.00    +0.000 A 
ATOM     14  C6  UNL     1     146.689 158.017 168.476  0.00  0.00    +0.000 A 
ATOM     15  C7  UNL     1     146.956 157.186 167.421  0.00  0.00    +0.000 A 
ATOM     16  C8  UNL     1     146.681 157.609 166.128  0.00  0.00    +0.000 A 
ATOM     17  C9  UNL     1     146.142 158.862 165.923  0.00  0.00    +0.000 A 
ENDBRANCH  11  12
ENDBRANCH   6  11
ENDBRANCH   2   6
ENDBRANCH   1   3
BRANCH   1  18
ATOM     18  N2  UNL     1     150.525 162.015 167.671  0.00  0.00    +0.000 N 
ATOM     19  C14 UNL     1     151.524 161.769 166.696  0.00  0.00    +0.000 C 
ATOM     20  O4  UNL     1     151.591 162.490 165.644  0.00  0.00    +0.000 OA
ATOM     21  H17 UNL     1     150.508 161.403 168.513  0.00  0.00    +0.000 HD
BRANCH  19  22
ATOM     22  C15 UNL     1     152.480 160.695 166.888  0.00  0.00    +0.000 A 
ATOM     23  C16 UNL     1     153.300 160.199 165.906  0.00  0.00    +0.000 A 
ATOM     24  C17 UNL     1     154.066 159.193 166.453  0.00  0.00    +0.000 A 
ATOM     25  C18 UNL     1     155.049 158.368 165.895  0.00  0.00    +0.000 A 
ATOM     26  C19 UNL     1     155.672 157.424 166.677  0.00  0.00    +0.000 A 
ATOM     27  C20 UNL     1     155.299 157.323 167.998  0.00  0.00    +0.000 A 
ATOM     28  C21 UNL     1     154.331 158.134 168.550  0.00  0.00    +0.000 A 
ATOM     29  C22 UNL     1     153.689 159.098 167.769  0.00  0.00    +0.000 A 
ATOM     30  N3  UNL     1     152.736 160.008 168.011  0.00  0.00    +0.000 N 
ATOM     31  H23 UNL     1     152.265 160.154 168.950  0.00  0.00    +0.000 HD
ENDBRANCH  19  22
ENDBRANCH   1  18
BRANCH   1  32
ATOM     32  C12 UNL     1     149.960 164.360 168.171  0.00  0.00    +0.000 C 
BRANCH  32  33
ATOM     33  C13 UNL     1     148.913 165.428 168.034  0.00  0.00    +0.000 C 
BRANCH  33  34
ATOM     34  S1  UNL     1     148.736 165.890 166.288  0.00  0.00    +0.000 S 
ATOM     35  H16 UNL     1     149.545 166.988 166.027  0.00  0.00    +0.000 HD
ENDBRANCH  33  34
ENDBRANCH  32  33
ENDBRANCH   1  32
TORSDOF 11
ENDMDL
MODEL 8
REMARK VINA RESULT:      -5.5      3.907      6.127
REMARK  Name = ./3D_structures\o64_MMV1581557_3D.pdb
REMARK  11 active torsions:
REMARK  status: ('A' for Active; 'I' for Inactive)
REMARK    1  A    between atoms: O1_1  and  C1_2
REMARK    2  A    between atoms: C1_2  and  C2_4
REMARK    3  A    between atoms: C2_4  and  C3_5
REMARK    4  A    between atoms: C2_4  and  N1_12
REMARK    5  A    between atoms: C3_5  and  C4_6
REMARK    6  A    between atoms: C10_13  and  C11_15
REMARK    7  A    between atoms: C11_15  and  C12_16
REMARK    8  A    between atoms: C11_15  and  N2_19
REMARK    9  A    between atoms: C12_16  and  C13_17
REMARK   10  A    between atoms: C13_17  and  S1_18
REMARK   11  A    between atoms: C14_20  and  C15_22
REMARK                            x       y       z     vdW  Elec       q    Type
REMARK                         _______ _______ _______ _____ _____    ______ ____
ROOT
ATOM      1  C11 UNL     1     150.492 158.805 170.215  0.00  0.00    +0.000 C 
ENDROOT
BRANCH   1   3
ATOM      2  N1  UNL     1     150.429 161.150 169.208  0.00  0.00    +0.000 N 
ATOM      3  C10 UNL     1     149.874 159.858 169.370  0.00  0.00    +0.000 C 
ATOM      4  O3  UNL     1     148.786 159.639 168.735  0.00  0.00    +0.000 OA
ATOM      5  H10 UNL     1     151.310 161.402 169.693  0.00  0.00    +0.000 HD
BRANCH   2   6
ATOM      6  C2  UNL     1     149.798 162.179 168.363  0.00  0.00    +0.000 C 
BRANCH   6   7
ATOM      7  C1  UNL     1     148.862 163.002 169.150  0.00  0.00    +0.000 C 
ATOM      8  O2  UNL     1     149.208 164.113 169.641  0.00  0.00    +0.000 OA
BRANCH   7   9
ATOM      9  O1  UNL     1     147.575 162.569 169.365  0.00  0.00    +0.000 OA
ATOM     10  H1  UNL     1     147.057 162.897 170.193  0.00  0.00    +0.000 HD
ENDBRANCH   7   9
ENDBRANCH   6   7
BRANCH   6  11
ATOM     11  C3  UNL     1     150.959 162.967 167.791  0.00  0.00    +0.000 C 
BRANCH  11  12
ATOM     12  C4  UNL     1     151.902 162.163 167.010  0.00  0.00    +0.000 A 
ATOM     13  C5  UNL     1     153.213 162.023 167.407  0.00  0.00    +0.000 A 
ATOM     14  C6  UNL     1     154.071 161.259 166.644  0.00  0.00    +0.000 A 
ATOM     15  C7  UNL     1     153.638 160.642 165.501  0.00  0.00    +0.000 A 
ATOM     16  C8  UNL     1     152.317 160.785 165.102  0.00  0.00    +0.000 A 
ATOM     17  C9  UNL     1     151.456 161.547 165.864  0.00  0.00    +0.000 A 
ENDBRANCH  11  12
ENDBRANCH   6  11
ENDBRANCH   2   6
ENDBRANCH   1   3
BRANCH   1  18
ATOM     18  N2  UNL     1     151.864 158.583 169.888  0.00  0.00    +0.000 N 
ATOM     19  C14 UNL     1     152.931 159.300 170.487  0.00  0.00    +0.000 C 
ATOM     20  O4  UNL     1     152.694 160.194 171.367  0.00  0.00    +0.000 OA
ATOM     21  H17 UNL     1     152.104 157.863 169.175  0.00  0.00    +0.000 HD
BRANCH  19  22
ATOM     22  C15 UNL     1     154.302 159.020 170.103  0.00  0.00    +0.000 A 
ATOM     23  C16 UNL     1     155.381 159.118 170.945  0.00  0.00    +0.000 A 
ATOM     24  C17 UNL     1     156.512 158.778 170.237  0.00  0.00    +0.000 A 
ATOM     25  C18 UNL     1     157.858 158.713 170.613  0.00  0.00    +0.000 A 
ATOM     26  C19 UNL     1     158.807 158.337 169.692  0.00  0.00    +0.000 A 
ATOM     27  C20 UNL     1     158.392 158.036 168.414  0.00  0.00    +0.000 A 
ATOM     28  C21 UNL     1     157.067 158.099 168.041  0.00  0.00    +0.000 A 
ATOM     29  C22 UNL     1     156.091 158.479 168.965  0.00  0.00    +0.000 A 
ATOM     30  N3  UNL     1     154.761 158.630 168.905  0.00  0.00    +0.000 N 
ATOM     31  H23 UNL     1     154.173 158.464 168.037  0.00  0.00    +0.000 HD
ENDBRANCH  19  22
ENDBRANCH   1  18
BRANCH   1  32
ATOM     32  C12 UNL     1     149.647 157.561 170.220  0.00  0.00    +0.000 C 
BRANCH  32  33
ATOM     33  C13 UNL     1     150.284 156.423 170.965  0.00  0.00    +0.000 C 
BRANCH  33  34
ATOM     34  S1  UNL     1     149.642 156.367 172.660  0.00  0.00    +0.000 S 
ATOM     35  H16 UNL     1     150.710 156.315 173.547  0.00  0.00    +0.000 HD
ENDBRANCH  33  34
ENDBRANCH  32  33
ENDBRANCH   1  32
TORSDOF 11
ENDMDL
MODEL 9
REMARK VINA RESULT:      -5.5      3.359      9.384
REMARK  Name = ./3D_structures\o64_MMV1581557_3D.pdb
REMARK  11 active torsions:
REMARK  status: ('A' for Active; 'I' for Inactive)
REMARK    1  A    between atoms: O1_1  and  C1_2
REMARK    2  A    between atoms: C1_2  and  C2_4
REMARK    3  A    between atoms: C2_4  and  C3_5
REMARK    4  A    between atoms: C2_4  and  N1_12
REMARK    5  A    between atoms: C3_5  and  C4_6
REMARK    6  A    between atoms: C10_13  and  C11_15
REMARK    7  A    between atoms: C11_15  and  C12_16
REMARK    8  A    between atoms: C11_15  and  N2_19
REMARK    9  A    between atoms: C12_16  and  C13_17
REMARK   10  A    between atoms: C13_17  and  S1_18
REMARK   11  A    between atoms: C14_20  and  C15_22
REMARK                            x       y       z     vdW  Elec       q    Type
REMARK                         _______ _______ _______ _____ _____    ______ ____
ROOT
ATOM      1  C11 UNL     1     151.472 163.698 170.619  0.00  0.00    +0.000 C 
ENDROOT
BRANCH   1   3
ATOM      2  N1  UNL     1     151.732 161.166 170.434  0.00  0.00    +0.000 N 
ATOM      3  C10 UNL     1     151.750 162.358 171.196  0.00  0.00    +0.000 C 
ATOM      4  O3  UNL     1     152.025 162.219 172.436  0.00  0.00    +0.000 OA
ATOM      5  H10 UNL     1     151.516 161.198 169.421  0.00  0.00    +0.000 HD
BRANCH   2   6
ATOM      6  C2  UNL     1     152.013 159.846 171.028  0.00  0.00    +0.000 C 
BRANCH   6   7
ATOM      7  C1  UNL     1     150.776 159.055 171.154  0.00  0.00    +0.000 C 
ATOM      8  O2  UNL     1     149.933 158.989 170.215  0.00  0.00    +0.000 OA
BRANCH   7   9
ATOM      9  O1  UNL     1     150.515 158.363 172.313  0.00  0.00    +0.000 OA
ATOM     10  H1  UNL     1     149.557 158.039 172.510  0.00  0.00    +0.000 HD
ENDBRANCH   7   9
ENDBRANCH   6   7
BRANCH   6  11
ATOM     11  C3  UNL     1     153.037 159.221 170.102  0.00  0.00    +0.000 C 
BRANCH  11  12
ATOM     12  C4  UNL     1     154.369 159.074 170.694  0.00  0.00    +0.000 A 
ATOM     13  C5  UNL     1     154.761 159.849 171.761  0.00  0.00    +0.000 A 
ATOM     14  C6  UNL     1     156.025 159.683 172.288  0.00  0.00    +0.000 A 
ATOM     15  C7  UNL     1     156.891 158.760 171.765  0.00  0.00    +0.000 A 
ATOM     16  C8  UNL     1     156.494 157.979 170.688  0.00  0.00    +0.000 A 
ATOM     17  C9  UNL     1     155.230 158.143 170.160  0.00  0.00    +0.000 A 
ENDBRANCH  11  12
ENDBRANCH   6  11
ENDBRANCH   2   6
ENDBRANCH   1   3
BRANCH   1  18
ATOM     18  N2  UNL     1     150.269 163.718 169.850  0.00  0.00    +0.000 N 
ATOM     19  C14 UNL     1     149.147 164.517 170.185  0.00  0.00    +0.000 C 
ATOM     20  O4  UNL     1     149.175 165.270 171.216  0.00  0.00    +0.000 OA
ATOM     21  H17 UNL     1     150.202 163.120 169.000  0.00  0.00    +0.000 HD
BRANCH  19  22
ATOM     22  C15 UNL     1     147.957 164.485 169.356  0.00  0.00    +0.000 A 
ATOM     23  C16 UNL     1     146.898 163.634 169.547  0.00  0.00    +0.000 A 
ATOM     24  C17 UNL     1     145.957 163.891 168.575  0.00  0.00    +0.000 A 
ATOM     25  C18 UNL     1     144.708 163.315 168.316  0.00  0.00    +0.000 A 
ATOM     26  C19 UNL     1     143.955 163.767 167.259  0.00  0.00    +0.000 A 
ATOM     27  C20 UNL     1     144.465 164.782 166.481  0.00  0.00    +0.000 A 
ATOM     28  C21 UNL     1     145.694 165.350 166.733  0.00  0.00    +0.000 A 
ATOM     29  C22 UNL     1     146.472 164.903 167.803  0.00  0.00    +0.000 A 
ATOM     30  N3  UNL     1     147.673 165.246 168.289  0.00  0.00    +0.000 N 
ATOM     31  H23 UNL     1     148.294 166.005 167.883  0.00  0.00    +0.000 HD
ENDBRANCH  19  22
ENDBRANCH   1  18
BRANCH   1  32
ATOM     32  C12 UNL     1     152.679 164.228 169.894  0.00  0.00    +0.000 C 
BRANCH  32  33
ATOM     33  C13 UNL     1     153.631 164.959 170.796  0.00  0.00    +0.000 C 
BRANCH  33  34
ATOM     34  S1  UNL     1     152.702 166.043 171.916  0.00  0.00    +0.000 S 
ATOM     35  H16 UNL     1     152.476 165.371 173.111  0.00  0.00    +0.000 HD
ENDBRANCH  33  34
ENDBRANCH  32  33
ENDBRANCH   1  32
TORSDOF 11
ENDMDL
