MODEL 1
REMARK VINA RESULT:      -6.4      0.000      0.000
REMARK  Name = ./3D_structures\o65_MMV1581554_3D.pdb
REMARK  4 active torsions:
REMARK  status: ('A' for Active; 'I' for Inactive)
REMARK    1  A    between atoms: N1_1  and  C1_2
REMARK    2  A    between atoms: C3_4  and  N2_5
REMARK    3  A    between atoms: C5_8  and  C15_21
REMARK    4  A    between atoms: N4_10  and  C7_11
REMARK                            x       y       z     vdW  Elec       q    Type
REMARK                         _______ _______ _______ _____ _____    ______ ____
ROOT
ATOM      1  C1  UNL     1     144.815 163.761 167.475  0.00  0.00    +0.000 A 
ATOM      2  C2  UNL     1     144.820 164.813 166.593  0.00  0.00    +0.000 A 
ATOM      3  C3  UNL     1     146.057 165.274 166.164  0.00  0.00    +0.000 A 
ATOM      4  C4  UNL     1     147.225 164.692 166.611  0.00  0.00    +0.000 A 
ATOM      5  N3  UNL     1     148.418 165.129 166.201  0.00  0.00    +0.000 NA
ATOM      6  C5  UNL     1     149.610 164.593 166.610  0.00  0.00    +0.000 A 
ATOM      7  C6  UNL     1     149.582 163.534 167.502  0.00  0.00    +0.000 A 
ATOM      8  N4  UNL     1     150.789 162.992 167.963  0.00  0.00    +0.000 N 
ATOM      9  N5  UNL     1     148.377 163.108 167.901  0.00  0.00    +0.000 NA
ATOM     10  C13 UNL     1     147.215 163.635 167.499  0.00  0.00    +0.000 A 
ATOM     11  C14 UNL     1     145.989 163.172 167.928  0.00  0.00    +0.000 A 
ATOM     12  H6  UNL     1     151.714 163.405 167.661  0.00  0.00    +0.000 HD
ENDROOT
BRANCH   8  13
ATOM     13  C7  UNL     1     150.887 161.907 168.865  0.00  0.00    +0.000 A 
ATOM     14  C8  UNL     1     151.315 162.199 170.182  0.00  0.00    +0.000 A 
ATOM     15  C9  UNL     1     151.404 161.178 171.081  0.00  0.00    +0.000 A 
ATOM     16  C10 UNL     1     151.096 159.857 170.778  0.00  0.00    +0.000 A 
ATOM     17  F1  UNL     1     151.201 158.888 171.703  0.00  0.00    +0.000 F 
ATOM     18  C11 UNL     1     150.682 159.607 169.487  0.00  0.00    +0.000 A 
ATOM     19  C12 UNL     1     150.578 160.614 168.547  0.00  0.00    +0.000 A 
ENDBRANCH   8  13
BRANCH   6  20
ATOM     20  C15 UNL     1     150.856 165.146 166.106  0.00  0.00    +0.000 A 
ATOM     21  C16 UNL     1     151.501 166.134 166.839  0.00  0.00    +0.000 A 
ATOM     22  C17 UNL     1     152.660 166.742 166.424  0.00  0.00    +0.000 A 
ATOM     23  C18 UNL     1     153.207 166.350 165.221  0.00  0.00    +0.000 A 
ATOM     24  C19 UNL     1     152.584 165.371 164.475  0.00  0.00    +0.000 A 
ATOM     25  C20 UNL     1     151.418 164.771 164.910  0.00  0.00    +0.000 A 
ENDBRANCH   6  20
BRANCH   1  26
ATOM     26  N1  UNL     1     143.574 163.247 167.950  0.00  0.00    +0.000 N 
ATOM     27  H1  UNL     1     142.948 162.665 167.345  0.00  0.00    +0.000 HD
ATOM     28  H2  UNL     1     143.258 163.447 168.937  0.00  0.00    +0.000 HD
ENDBRANCH   1  26
BRANCH   3  29
ATOM     29  N2  UNL     1     146.107 166.366 165.246  0.00  0.00    +0.000 N 
ATOM     30  H4  UNL     1     146.550 167.288 165.493  0.00  0.00    +0.000 HD
ATOM     31  H5  UNL     1     145.693 166.268 164.280  0.00  0.00    +0.000 HD
ENDBRANCH   3  29
TORSDOF 4
ENDMDL
MODEL 2
REMARK VINA RESULT:      -6.3      9.916     12.468
REMARK  Name = ./3D_structures\o65_MMV1581554_3D.pdb
REMARK  4 active torsions:
REMARK  status: ('A' for Active; 'I' for Inactive)
REMARK    1  A    between atoms: N1_1  and  C1_2
REMARK    2  A    between atoms: C3_4  and  N2_5
REMARK    3  A    between atoms: C5_8  and  C15_21
REMARK    4  A    between atoms: N4_10  and  C7_11
REMARK                            x       y       z     vdW  Elec       q    Type
REMARK                         _______ _______ _______ _____ _____    ______ ____
ROOT
ATOM      1  C1  UNL     1     156.766 158.670 171.059  0.00  0.00    +0.000 A 
ATOM      2  C2  UNL     1     155.624 158.136 170.513  0.00  0.00    +0.000 A 
ATOM      3  C3  UNL     1     155.720 157.616 169.230  0.00  0.00    +0.000 A 
ATOM      4  C4  UNL     1     156.915 157.638 168.543  0.00  0.00    +0.000 A 
ATOM      5  N3  UNL     1     157.014 157.137 167.309  0.00  0.00    +0.000 NA
ATOM      6  C5  UNL     1     158.172 157.130 166.578  0.00  0.00    +0.000 A 
ATOM      7  C6  UNL     1     159.311 157.676 167.147  0.00  0.00    +0.000 A 
ATOM      8  N4  UNL     1     160.499 157.714 166.405  0.00  0.00    +0.000 N 
ATOM      9  N5  UNL     1     159.193 158.172 168.385  0.00  0.00    +0.000 NA
ATOM     10  C13 UNL     1     158.060 158.175 169.096  0.00  0.00    +0.000 A 
ATOM     11  C14 UNL     1     157.972 158.694 170.371  0.00  0.00    +0.000 A 
ATOM     12  H6  UNL     1     160.522 157.361 165.408  0.00  0.00    +0.000 HD
ENDROOT
BRANCH   8  13
ATOM     13  C7  UNL     1     161.724 158.236 166.881  0.00  0.00    +0.000 A 
ATOM     14  C8  UNL     1     162.673 157.308 167.371  0.00  0.00    +0.000 A 
ATOM     15  C9  UNL     1     163.871 157.776 167.822  0.00  0.00    +0.000 A 
ATOM     16  C10 UNL     1     164.218 159.122 167.829  0.00  0.00    +0.000 A 
ATOM     17  F1  UNL     1     165.414 159.531 168.285  0.00  0.00    +0.000 F 
ATOM     18  C11 UNL     1     163.272 159.999 167.344  0.00  0.00    +0.000 A 
ATOM     19  C12 UNL     1     162.046 159.564 166.878  0.00  0.00    +0.000 A 
ENDBRANCH   8  13
BRANCH   6  20
ATOM     20  C15 UNL     1     158.172 156.564 165.239  0.00  0.00    +0.000 A 
ATOM     21  C16 UNL     1     158.316 155.191 165.088  0.00  0.00    +0.000 A 
ATOM     22  C17 UNL     1     158.367 154.571 163.864  0.00  0.00    +0.000 A 
ATOM     23  C18 UNL     1     158.270 155.354 162.732  0.00  0.00    +0.000 A 
ATOM     24  C19 UNL     1     158.127 156.720 162.859  0.00  0.00    +0.000 A 
ATOM     25  C20 UNL     1     158.078 157.325 164.100  0.00  0.00    +0.000 A 
ENDBRANCH   6  20
BRANCH   1  26
ATOM     26  N1  UNL     1     156.726 159.219 172.373  0.00  0.00    +0.000 N 
ATOM     27  H1  UNL     1     156.316 160.164 172.567  0.00  0.00    +0.000 HD
ATOM     28  H2  UNL     1     157.116 158.675 173.190  0.00  0.00    +0.000 HD
ENDBRANCH   1  26
BRANCH   3  29
ATOM     29  N2  UNL     1     154.556 157.052 168.625  0.00  0.00    +0.000 N 
ATOM     30  H4  UNL     1     153.625 157.027 169.114  0.00  0.00    +0.000 HD
ATOM     31  H5  UNL     1     154.608 156.640 167.655  0.00  0.00    +0.000 HD
ENDBRANCH   3  29
TORSDOF 4
ENDMDL
MODEL 3
REMARK VINA RESULT:      -6.1      6.095      9.525
REMARK  Name = ./3D_structures\o65_MMV1581554_3D.pdb
REMARK  4 active torsions:
REMARK  status: ('A' for Active; 'I' for Inactive)
REMARK    1  A    between atoms: N1_1  and  C1_2
REMARK    2  A    between atoms: C3_4  and  N2_5
REMARK    3  A    between atoms: C5_8  and  C15_21
REMARK    4  A    between atoms: N4_10  and  C7_11
REMARK                            x       y       z     vdW  Elec       q    Type
REMARK                         _______ _______ _______ _____ _____    ______ ____
ROOT
ATOM      1  C1  UNL     1     154.365 160.904 171.917  0.00  0.00    +0.000 A 
ATOM      2  C2  UNL     1     155.164 159.900 172.407  0.00  0.00    +0.000 A 
ATOM      3  C3  UNL     1     155.798 159.086 171.479  0.00  0.00    +0.000 A 
ATOM      4  C4  UNL     1     155.626 159.286 170.125  0.00  0.00    +0.000 A 
ATOM      5  N3  UNL     1     156.234 158.506 169.227  0.00  0.00    +0.000 NA
ATOM      6  C5  UNL     1     156.102 158.655 167.872  0.00  0.00    +0.000 A 
ATOM      7  C6  UNL     1     155.288 159.672 167.400  0.00  0.00    +0.000 A 
ATOM      8  N4  UNL     1     155.108 159.821 166.018  0.00  0.00    +0.000 N 
ATOM      9  N5  UNL     1     154.688 160.443 168.315  0.00  0.00    +0.000 NA
ATOM     10  C13 UNL     1     154.821 160.295 169.637  0.00  0.00    +0.000 A 
ATOM     11  C14 UNL     1     154.188 161.108 170.554  0.00  0.00    +0.000 A 
ATOM     12  H6  UNL     1     155.560 159.146 165.341  0.00  0.00    +0.000 HD
ENDROOT
BRANCH   8  13
ATOM     13  C7  UNL     1     154.312 160.824 165.419  0.00  0.00    +0.000 A 
ATOM     14  C8  UNL     1     152.925 160.566 165.305  0.00  0.00    +0.000 A 
ATOM     15  C9  UNL     1     152.127 161.519 164.747  0.00  0.00    +0.000 A 
ATOM     16  C10 UNL     1     152.599 162.741 164.279  0.00  0.00    +0.000 A 
ATOM     17  F1  UNL     1     151.768 163.646 163.737  0.00  0.00    +0.000 F 
ATOM     18  C11 UNL     1     153.954 162.961 164.406  0.00  0.00    +0.000 A 
ATOM     19  C12 UNL     1     154.796 162.020 164.966  0.00  0.00    +0.000 A 
ENDBRANCH   8  13
BRANCH   6  20
ATOM     20  C15 UNL     1     156.805 157.749 166.979  0.00  0.00    +0.000 A 
ATOM     21  C16 UNL     1     158.181 157.873 166.839  0.00  0.00    +0.000 A 
ATOM     22  C17 UNL     1     158.924 157.090 165.991  0.00  0.00    +0.000 A 
ATOM     23  C18 UNL     1     158.268 156.135 165.243  0.00  0.00    +0.000 A 
ATOM     24  C19 UNL     1     156.901 155.995 165.365  0.00  0.00    +0.000 A 
ATOM     25  C20 UNL     1     156.171 156.793 166.225  0.00  0.00    +0.000 A 
ENDBRANCH   6  20
BRANCH   1  26
ATOM     26  N1  UNL     1     153.688 161.770 172.823  0.00  0.00    +0.000 N 
ATOM     27  H1  UNL     1     154.062 161.971 173.781  0.00  0.00    +0.000 HD
ATOM     28  H2  UNL     1     152.783 162.234 172.541  0.00  0.00    +0.000 HD
ENDBRANCH   1  26
BRANCH   3  29
ATOM     29  N2  UNL     1     156.639 158.030 171.946  0.00  0.00    +0.000 N 
ATOM     30  H4  UNL     1     156.689 157.761 172.961  0.00  0.00    +0.000 HD
ATOM     31  H5  UNL     1     157.238 157.489 171.268  0.00  0.00    +0.000 HD
ENDBRANCH   3  29
TORSDOF 4
ENDMDL
MODEL 4
REMARK VINA RESULT:      -6.0      9.617     12.016
REMARK  Name = ./3D_structures\o65_MMV1581554_3D.pdb
REMARK  4 active torsions:
REMARK  status: ('A' for Active; 'I' for Inactive)
REMARK    1  A    between atoms: N1_1  and  C1_2
REMARK    2  A    between atoms: C3_4  and  N2_5
REMARK    3  A    between atoms: C5_8  and  C15_21
REMARK    4  A    between atoms: N4_10  and  C7_11
REMARK                            x       y       z     vdW  Elec       q    Type
REMARK                         _______ _______ _______ _____ _____    ______ ____
ROOT
ATOM      1  C1  UNL     1     154.872 157.656 169.283  0.00  0.00    +0.000 A 
ATOM      2  C2  UNL     1     155.522 158.527 170.123  0.00  0.00    +0.000 A 
ATOM      3  C3  UNL     1     156.835 158.848 169.809  0.00  0.00    +0.000 A 
ATOM      4  C4  UNL     1     157.451 158.310 168.698  0.00  0.00    +0.000 A 
ATOM      5  N3  UNL     1     158.714 158.617 168.390  0.00  0.00    +0.000 NA
ATOM      6  C5  UNL     1     159.378 158.116 167.302  0.00  0.00    +0.000 A 
ATOM      7  C6  UNL     1     158.704 157.237 166.470  0.00  0.00    +0.000 A 
ATOM      8  N4  UNL     1     159.374 156.682 165.371  0.00  0.00    +0.000 N 
ATOM      9  N5  UNL     1     157.439 156.943 166.793  0.00  0.00    +0.000 NA
ATOM     10  C13 UNL     1     156.794 157.436 167.856  0.00  0.00    +0.000 A 
ATOM     11  C14 UNL     1     155.489 157.113 168.163  0.00  0.00    +0.000 A 
ATOM     12  H6  UNL     1     160.392 156.903 165.194  0.00  0.00    +0.000 HD
ENDROOT
BRANCH   8  13
ATOM     13  C7  UNL     1     158.790 155.785 164.447  0.00  0.00    +0.000 A 
ATOM     14  C8  UNL     1     158.821 154.409 164.776  0.00  0.00    +0.000 A 
ATOM     15  C9  UNL     1     158.252 153.518 163.916  0.00  0.00    +0.000 A 
ATOM     16  C10 UNL     1     157.638 153.885 162.724  0.00  0.00    +0.000 A 
ATOM     17  F1  UNL     1     157.092 152.966 161.910  0.00  0.00    +0.000 F 
ATOM     18  C11 UNL     1     157.624 155.232 162.434  0.00  0.00    +0.000 A 
ATOM     19  C12 UNL     1     158.189 156.167 163.280  0.00  0.00    +0.000 A 
ENDBRANCH   8  13
BRANCH   6  20
ATOM     20  C15 UNL     1     160.755 158.510 167.058  0.00  0.00    +0.000 A 
ATOM     21  C16 UNL     1     161.781 157.684 167.499  0.00  0.00    +0.000 A 
ATOM     22  C17 UNL     1     163.111 157.992 167.348  0.00  0.00    +0.000 A 
ATOM     23  C18 UNL     1     163.439 159.180 166.728  0.00  0.00    +0.000 A 
ATOM     24  C19 UNL     1     162.436 160.015 166.283  0.00  0.00    +0.000 A 
ATOM     25  C20 UNL     1     161.104 159.687 166.444  0.00  0.00    +0.000 A 
ENDBRANCH   6  20
BRANCH   1  26
ATOM     26  N1  UNL     1     153.523 157.291 169.556  0.00  0.00    +0.000 N 
ATOM     27  H1  UNL     1     152.760 158.005 169.638  0.00  0.00    +0.000 HD
ATOM     28  H2  UNL     1     153.261 156.275 169.682  0.00  0.00    +0.000 HD
ENDBRANCH   1  26
BRANCH   3  29
ATOM     29  N2  UNL     1     157.547 159.750 170.657  0.00  0.00    +0.000 N 
ATOM     30  H4  UNL     1     158.589 159.877 170.593  0.00  0.00    +0.000 HD
ATOM     31  H5  UNL     1     157.030 160.319 171.380  0.00  0.00    +0.000 HD
ENDBRANCH   3  29
TORSDOF 4
ENDMDL
MODEL 5
REMARK VINA RESULT:      -6.0      8.401     10.952
REMARK  Name = ./3D_structures\o65_MMV1581554_3D.pdb
REMARK  4 active torsions:
REMARK  status: ('A' for Active; 'I' for Inactive)
REMARK    1  A    between atoms: N1_1  and  C1_2
REMARK    2  A    between atoms: C3_4  and  N2_5
REMARK    3  A    between atoms: C5_8  and  C15_21
REMARK    4  A    between atoms: N4_10  and  C7_11
REMARK                            x       y       z     vdW  Elec       q    Type
REMARK                         _______ _______ _______ _____ _____    ______ ____
ROOT
ATOM      1  C1  UNL     1     156.713 162.336 164.256  0.00  0.00    +0.000 A 
ATOM      2  C2  UNL     1     157.034 161.907 162.992  0.00  0.00    +0.000 A 
ATOM      3  C3  UNL     1     157.440 160.587 162.856  0.00  0.00    +0.000 A 
ATOM      4  C4  UNL     1     157.513 159.751 163.950  0.00  0.00    +0.000 A 
ATOM      5  N3  UNL     1     157.901 158.479 163.825  0.00  0.00    +0.000 NA
ATOM      6  C5  UNL     1     157.994 157.602 164.873  0.00  0.00    +0.000 A 
ATOM      7  C6  UNL     1     157.668 158.057 166.140  0.00  0.00    +0.000 A 
ATOM      8  N4  UNL     1     157.790 157.189 167.233  0.00  0.00    +0.000 N 
ATOM      9  N5  UNL     1     157.280 159.334 166.245  0.00  0.00    +0.000 NA
ATOM     10  C13 UNL     1     157.190 160.186 165.219  0.00  0.00    +0.000 A 
ATOM     11  C14 UNL     1     156.786 161.497 165.361  0.00  0.00    +0.000 A 
ATOM     12  H6  UNL     1     158.158 156.207 167.102  0.00  0.00    +0.000 HD
ENDROOT
BRANCH   8  13
ATOM     13  C7  UNL     1     157.479 157.535 168.568  0.00  0.00    +0.000 A 
ATOM     14  C8  UNL     1     156.234 157.093 169.076  0.00  0.00    +0.000 A 
ATOM     15  C9  UNL     1     155.910 157.395 170.365  0.00  0.00    +0.000 A 
ATOM     16  C10 UNL     1     156.737 158.118 171.217  0.00  0.00    +0.000 A 
ATOM     17  F1  UNL     1     156.369 158.389 172.481  0.00  0.00    +0.000 F 
ATOM     18  C11 UNL     1     157.942 158.533 170.692  0.00  0.00    +0.000 A 
ATOM     19  C12 UNL     1     158.308 158.246 169.390  0.00  0.00    +0.000 A 
ENDBRANCH   8  13
BRANCH   6  20
ATOM     20  C15 UNL     1     158.432 156.238 164.630  0.00  0.00    +0.000 A 
ATOM     21  C16 UNL     1     157.478 155.247 164.437  0.00  0.00    +0.000 A 
ATOM     22  C17 UNL     1     157.796 153.926 164.240  0.00  0.00    +0.000 A 
ATOM     23  C18 UNL     1     159.128 153.569 164.235  0.00  0.00    +0.000 A 
ATOM     24  C19 UNL     1     160.093 154.537 164.426  0.00  0.00    +0.000 A 
ATOM     25  C20 UNL     1     159.753 155.861 164.622  0.00  0.00    +0.000 A 
ENDBRANCH   6  20
BRANCH   1  26
ATOM     26  N1  UNL     1     156.290 163.682 164.456  0.00  0.00    +0.000 N 
ATOM     27  H1  UNL     1     155.335 163.915 164.818  0.00  0.00    +0.000 HD
ATOM     28  H2  UNL     1     156.943 164.483 164.239  0.00  0.00    +0.000 HD
ENDBRANCH   1  26
BRANCH   3  29
ATOM     29  N2  UNL     1     157.783 160.100 161.557  0.00  0.00    +0.000 N 
ATOM     30  H4  UNL     1     158.018 160.744 160.760  0.00  0.00    +0.000 HD
ATOM     31  H5  UNL     1     157.808 159.062 161.369  0.00  0.00    +0.000 HD
ENDBRANCH   3  29
TORSDOF 4
ENDMDL
MODEL 6
REMARK VINA RESULT:      -5.9      2.803      5.674
REMARK  Name = ./3D_structures\o65_MMV1581554_3D.pdb
REMARK  4 active torsions:
REMARK  status: ('A' for Active; 'I' for Inactive)
REMARK    1  A    between atoms: N1_1  and  C1_2
REMARK    2  A    between atoms: C3_4  and  N2_5
REMARK    3  A    between atoms: C5_8  and  C15_21
REMARK    4  A    between atoms: N4_10  and  C7_11
REMARK                            x       y       z     vdW  Elec       q    Type
REMARK                         _______ _______ _______ _____ _____    ______ ____
ROOT
ATOM      1  C1  UNL     1     145.619 166.567 165.842  0.00  0.00    +0.000 A 
ATOM      2  C2  UNL     1     145.004 165.397 166.216  0.00  0.00    +0.000 A 
ATOM      3  C3  UNL     1     145.816 164.383 166.703  0.00  0.00    +0.000 A 
ATOM      4  C4  UNL     1     147.181 164.554 166.805  0.00  0.00    +0.000 A 
ATOM      5  N3  UNL     1     147.967 163.582 167.276  0.00  0.00    +0.000 NA
ATOM      6  C5  UNL     1     149.327 163.693 167.400  0.00  0.00    +0.000 A 
ATOM      7  C6  UNL     1     149.926 164.881 167.014  0.00  0.00    +0.000 A 
ATOM      8  N4  UNL     1     151.320 165.005 167.097  0.00  0.00    +0.000 N 
ATOM      9  N5  UNL     1     149.122 165.843 166.547  0.00  0.00    +0.000 NA
ATOM     10  C13 UNL     1     147.795 165.731 166.429  0.00  0.00    +0.000 A 
ATOM     11  C14 UNL     1     146.993 166.743 165.943  0.00  0.00    +0.000 A 
ATOM     12  H6  UNL     1     151.914 164.192 167.419  0.00  0.00    +0.000 HD
ENDROOT
BRANCH   8  13
ATOM     13  C7  UNL     1     152.042 166.168 166.744  0.00  0.00    +0.000 A 
ATOM     14  C8  UNL     1     152.360 166.340 165.375  0.00  0.00    +0.000 A 
ATOM     15  C9  UNL     1     153.041 167.458 164.998  0.00  0.00    +0.000 A 
ATOM     16  C10 UNL     1     153.445 168.449 165.886  0.00  0.00    +0.000 A 
ATOM     17  F1  UNL     1     154.115 169.533 165.461  0.00  0.00    +0.000 F 
ATOM     18  C11 UNL     1     153.120 168.252 167.211  0.00  0.00    +0.000 A 
ATOM     19  C12 UNL     1     152.430 167.131 167.633  0.00  0.00    +0.000 A 
ENDBRANCH   8  13
BRANCH   6  20
ATOM     20  C15 UNL     1     150.094 162.573 167.920  0.00  0.00    +0.000 A 
ATOM     21  C16 UNL     1     150.862 161.817 167.044  0.00  0.00    +0.000 A 
ATOM     22  C17 UNL     1     151.587 160.719 167.437  0.00  0.00    +0.000 A 
ATOM     23  C18 UNL     1     151.548 160.353 168.766  0.00  0.00    +0.000 A 
ATOM     24  C19 UNL     1     150.791 161.089 169.653  0.00  0.00    +0.000 A 
ATOM     25  C20 UNL     1     150.068 162.191 169.239  0.00  0.00    +0.000 A 
ENDBRANCH   6  20
BRANCH   1  26
ATOM     26  N1  UNL     1     144.835 167.642 165.334  0.00  0.00    +0.000 N 
ATOM     27  H1  UNL     1     144.190 167.520 164.517  0.00  0.00    +0.000 HD
ATOM     28  H2  UNL     1     144.890 168.598 165.779  0.00  0.00    +0.000 HD
ENDBRANCH   1  26
BRANCH   3  29
ATOM     29  N2  UNL     1     145.217 163.150 167.103  0.00  0.00    +0.000 N 
ATOM     30  H4  UNL     1     144.504 162.654 166.511  0.00  0.00    +0.000 HD
ATOM     31  H5  UNL     1     145.484 162.703 168.021  0.00  0.00    +0.000 HD
ENDBRANCH   3  29
TORSDOF 4
ENDMDL
MODEL 7
REMARK VINA RESULT:      -5.8      4.332      7.398
REMARK  Name = ./3D_structures\o65_MMV1581554_3D.pdb
REMARK  4 active torsions:
REMARK  status: ('A' for Active; 'I' for Inactive)
REMARK    1  A    between atoms: N1_1  and  C1_2
REMARK    2  A    between atoms: C3_4  and  N2_5
REMARK    3  A    between atoms: C5_8  and  C15_21
REMARK    4  A    between atoms: N4_10  and  C7_11
REMARK                            x       y       z     vdW  Elec       q    Type
REMARK                         _______ _______ _______ _____ _____    ______ ____
ROOT
ATOM      1  C1  UNL     1     152.886 163.171 164.454  0.00  0.00    +0.000 A 
ATOM      2  C2  UNL     1     151.814 163.737 165.100  0.00  0.00    +0.000 A 
ATOM      3  C3  UNL     1     151.381 163.121 166.266  0.00  0.00    +0.000 A 
ATOM      4  C4  UNL     1     152.008 161.991 166.746  0.00  0.00    +0.000 A 
ATOM      5  N3  UNL     1     151.596 161.395 167.869  0.00  0.00    +0.000 NA
ATOM      6  C5  UNL     1     152.177 160.271 168.394  0.00  0.00    +0.000 A 
ATOM      7  C6  UNL     1     153.255 159.715 167.724  0.00  0.00    +0.000 A 
ATOM      8  N4  UNL     1     153.843 158.545 168.223  0.00  0.00    +0.000 N 
ATOM      9  N5  UNL     1     153.654 160.327 166.603  0.00  0.00    +0.000 NA
ATOM     10  C13 UNL     1     153.084 161.425 166.094  0.00  0.00    +0.000 A 
ATOM     11  C14 UNL     1     153.520 162.032 164.935  0.00  0.00    +0.000 A 
ATOM     12  H6  UNL     1     153.450 158.069 169.081  0.00  0.00    +0.000 HD
ENDROOT
BRANCH   8  13
ATOM     13  C7  UNL     1     154.950 157.893 167.634  0.00  0.00    +0.000 A 
ATOM     14  C8  UNL     1     155.998 157.493 168.497  0.00  0.00    +0.000 A 
ATOM     15  C9  UNL     1     157.073 156.846 167.964  0.00  0.00    +0.000 A 
ATOM     16  C10 UNL     1     157.201 156.554 166.611  0.00  0.00    +0.000 A 
ATOM     17  F1  UNL     1     158.284 155.914 166.137  0.00  0.00    +0.000 F 
ATOM     18  C11 UNL     1     156.164 156.957 165.798  0.00  0.00    +0.000 A 
ATOM     19  C12 UNL     1     155.057 157.614 166.300  0.00  0.00    +0.000 A 
ENDBRANCH   8  13
BRANCH   6  20
ATOM     20  C15 UNL     1     151.649 159.697 169.621  0.00  0.00    +0.000 A 
ATOM     21  C16 UNL     1     152.074 160.206 170.841  0.00  0.00    +0.000 A 
ATOM     22  C17 UNL     1     151.661 159.703 172.050  0.00  0.00    +0.000 A 
ATOM     23  C18 UNL     1     150.781 158.641 172.048  0.00  0.00    +0.000 A 
ATOM     24  C19 UNL     1     150.347 158.119 170.847  0.00  0.00    +0.000 A 
ATOM     25  C20 UNL     1     150.774 158.639 169.641  0.00  0.00    +0.000 A 
ENDBRANCH   6  20
BRANCH   1  26
ATOM     26  N1  UNL     1     153.374 163.760 163.252  0.00  0.00    +0.000 N 
ATOM     27  H1  UNL     1     154.070 164.543 163.261  0.00  0.00    +0.000 HD
ATOM     28  H2  UNL     1     153.038 163.412 162.314  0.00  0.00    +0.000 HD
ENDBRANCH   1  26
BRANCH   3  29
ATOM     29  N2  UNL     1     150.269 163.678 166.969  0.00  0.00    +0.000 N 
ATOM     30  H4  UNL     1     149.808 163.182 167.772  0.00  0.00    +0.000 HD
ATOM     31  H5  UNL     1     149.882 164.619 166.689  0.00  0.00    +0.000 HD
ENDBRANCH   3  29
TORSDOF 4
ENDMDL
MODEL 8
REMARK VINA RESULT:      -5.8     24.582     28.042
REMARK  Name = ./3D_structures\o65_MMV1581554_3D.pdb
REMARK  4 active torsions:
REMARK  status: ('A' for Active; 'I' for Inactive)
REMARK    1  A    between atoms: N1_1  and  C1_2
REMARK    2  A    between atoms: C3_4  and  N2_5
REMARK    3  A    between atoms: C5_8  and  C15_21
REMARK    4  A    between atoms: N4_10  and  C7_11
REMARK                            x       y       z     vdW  Elec       q    Type
REMARK                         _______ _______ _______ _____ _____    ______ ____
ROOT
ATOM      1  C1  UNL     1     164.415 140.098 161.179  0.00  0.00    +0.000 A 
ATOM      2  C2  UNL     1     165.727 139.819 160.885  0.00  0.00    +0.000 A 
ATOM      3  C3  UNL     1     166.659 140.026 161.892  0.00  0.00    +0.000 A 
ATOM      4  C4  UNL     1     166.273 140.490 163.132  0.00  0.00    +0.000 A 
ATOM      5  N3  UNL     1     167.166 140.689 164.105  0.00  0.00    +0.000 NA
ATOM      6  C5  UNL     1     166.843 141.149 165.355  0.00  0.00    +0.000 A 
ATOM      7  C6  UNL     1     165.514 141.426 165.629  0.00  0.00    +0.000 A 
ATOM      8  N4  UNL     1     165.164 141.931 166.888  0.00  0.00    +0.000 N 
ATOM      9  N5  UNL     1     164.635 141.218 164.642  0.00  0.00    +0.000 NA
ATOM     10  C13 UNL     1     164.954 140.769 163.423  0.00  0.00    +0.000 A 
ATOM     11  C14 UNL     1     164.022 140.566 162.427  0.00  0.00    +0.000 A 
ATOM     12  H6  UNL     1     165.908 142.132 167.613  0.00  0.00    +0.000 HD
ENDROOT
BRANCH   8  13
ATOM     13  C7  UNL     1     163.844 142.242 167.287  0.00  0.00    +0.000 A 
ATOM     14  C8  UNL     1     163.360 143.533 166.970  0.00  0.00    +0.000 A 
ATOM     15  C9  UNL     1     162.086 143.859 167.326  0.00  0.00    +0.000 A 
ATOM     16  C10 UNL     1     161.225 142.990 167.987  0.00  0.00    +0.000 A 
ATOM     17  F1  UNL     1     159.977 143.362 168.315  0.00  0.00    +0.000 F 
ATOM     18  C11 UNL     1     161.727 141.740 168.281  0.00  0.00    +0.000 A 
ATOM     19  C12 UNL     1     163.014 141.371 167.937  0.00  0.00    +0.000 A 
ENDBRANCH   8  13
BRANCH   6  20
ATOM     20  C15 UNL     1     167.892 141.336 166.343  0.00  0.00    +0.000 A 
ATOM     21  C16 UNL     1     168.017 140.417 167.377  0.00  0.00    +0.000 A 
ATOM     22  C17 UNL     1     168.951 140.532 168.377  0.00  0.00    +0.000 A 
ATOM     23  C18 UNL     1     169.805 141.615 168.349  0.00  0.00    +0.000 A 
ATOM     24  C19 UNL     1     169.698 142.541 167.333  0.00  0.00    +0.000 A 
ATOM     25  C20 UNL     1     168.752 142.407 166.335  0.00  0.00    +0.000 A 
ENDBRANCH   6  20
BRANCH   1  26
ATOM     26  N1  UNL     1     163.415 139.905 160.184  0.00  0.00    +0.000 N 
ATOM     27  H1  UNL     1     162.408 139.755 160.432  0.00  0.00    +0.000 HD
ATOM     28  H2  UNL     1     163.674 139.911 159.160  0.00  0.00    +0.000 HD
ENDBRANCH   1  26
BRANCH   3  29
ATOM     29  N2  UNL     1     168.035 139.748 161.627  0.00  0.00    +0.000 N 
ATOM     30  H4  UNL     1     168.364 138.807 161.294  0.00  0.00    +0.000 HD
ATOM     31  H5  UNL     1     168.764 140.499 161.763  0.00  0.00    +0.000 HD
ENDBRANCH   3  29
TORSDOF 4
ENDMDL
MODEL 9
REMARK VINA RESULT:      -5.8      2.410      3.228
REMARK  Name = ./3D_structures\o65_MMV1581554_3D.pdb
REMARK  4 active torsions:
REMARK  status: ('A' for Active; 'I' for Inactive)
REMARK    1  A    between atoms: N1_1  and  C1_2
REMARK    2  A    between atoms: C3_4  and  N2_5
REMARK    3  A    between atoms: C5_8  and  C15_21
REMARK    4  A    between atoms: N4_10  and  C7_11
REMARK                            x       y       z     vdW  Elec       q    Type
REMARK                         _______ _______ _______ _____ _____    ______ ____
ROOT
ATOM      1  C1  UNL     1     147.886 163.753 168.426  0.00  0.00    +0.000 A 
ATOM      2  C2  UNL     1     147.711 164.815 167.572  0.00  0.00    +0.000 A 
ATOM      3  C3  UNL     1     148.759 165.113 166.712  0.00  0.00    +0.000 A 
ATOM      4  C4  UNL     1     149.919 164.368 166.722  0.00  0.00    +0.000 A 
ATOM      5  N3  UNL     1     150.930 164.650 165.895  0.00  0.00    +0.000 NA
ATOM      6  C5  UNL     1     152.105 163.948 165.859  0.00  0.00    +0.000 A 
ATOM      7  C6  UNL     1     152.261 162.883 166.731  0.00  0.00    +0.000 A 
ATOM      8  N4  UNL     1     153.468 162.172 166.738  0.00  0.00    +0.000 N 
ATOM      9  N5  UNL     1     151.237 162.615 167.550  0.00  0.00    +0.000 NA
ATOM     10  C13 UNL     1     150.091 163.303 167.582  0.00  0.00    +0.000 A 
ATOM     11  C14 UNL     1     149.053 163.001 168.439  0.00  0.00    +0.000 A 
ATOM     12  H6  UNL     1     154.268 162.463 166.109  0.00  0.00    +0.000 HD
ENDROOT
BRANCH   8  13
ATOM     13  C7  UNL     1     153.740 161.064 167.573  0.00  0.00    +0.000 A 
ATOM     14  C8  UNL     1     154.319 161.334 168.836  0.00  0.00    +0.000 A 
ATOM     15  C9  UNL     1     154.578 160.289 169.672  0.00  0.00    +0.000 A 
ATOM     16  C10 UNL     1     154.305 158.964 169.355  0.00  0.00    +0.000 A 
ATOM     17  F1  UNL     1     154.581 157.971 170.217  0.00  0.00    +0.000 F 
ATOM     18  C11 UNL     1     153.741 158.735 168.118  0.00  0.00    +0.000 A 
ATOM     19  C12 UNL     1     153.462 159.767 167.242  0.00  0.00    +0.000 A 
ENDBRANCH   8  13
BRANCH   6  20
ATOM     20  C15 UNL     1     153.146 164.339 164.923  0.00  0.00    +0.000 A 
ATOM     21  C16 UNL     1     153.276 163.642 163.728  0.00  0.00    +0.000 A 
ATOM     22  C17 UNL     1     154.252 163.914 162.802  0.00  0.00    +0.000 A 
ATOM     23  C18 UNL     1     155.145 164.929 163.074  0.00  0.00    +0.000 A 
ATOM     24  C19 UNL     1     155.036 165.634 164.255  0.00  0.00    +0.000 A 
ATOM     25  C20 UNL     1     154.046 165.345 165.175  0.00  0.00    +0.000 A 
ENDBRANCH   6  20
BRANCH   1  26
ATOM     26  N1  UNL     1     146.844 163.401 169.332  0.00  0.00    +0.000 N 
ATOM     27  H1  UNL     1     147.012 162.768 170.150  0.00  0.00    +0.000 HD
ATOM     28  H2  UNL     1     145.868 163.779 169.194  0.00  0.00    +0.000 HD
ENDBRANCH   1  26
BRANCH   3  29
ATOM     29  N2  UNL     1     148.618 166.210 165.807  0.00  0.00    +0.000 N 
ATOM     30  H4  UNL     1     147.797 166.865 165.843  0.00  0.00    +0.000 HD
ATOM     31  H5  UNL     1     149.352 166.387 165.070  0.00  0.00    +0.000 HD
ENDBRANCH   3  29
TORSDOF 4
ENDMDL
