MODEL 1
REMARK VINA RESULT:      -4.9      0.000      0.000
REMARK  Name = ./3D_structures\o66_MMV1581550_3D.pdb
REMARK  6 active torsions:
REMARK  status: ('A' for Active; 'I' for Inactive)
REMARK    1  A    between atoms: O1_1  and  C1_2
REMARK    2  A    between atoms: C2_4  and  C3_5
REMARK    3  A    between atoms: C3_5  and  S1_6
REMARK    4  A    between atoms: S1_6  and  C4_7
REMARK    5  A    between atoms: C10_14  and  O3_15
REMARK    6  A    between atoms: C11_16  and  O4_17
REMARK                            x       y       z     vdW  Elec       q    Type
REMARK                         _______ _______ _______ _____ _____    ______ ____
ROOT
ATOM      1  C1  UNL     1     146.397 163.779 169.846  0.00  0.00    +0.000 C 
ATOM      2  O2  UNL     1     147.651 163.172 169.624  0.00  0.00    +0.000 OA
ATOM      3  C2  UNL     1     147.457 162.455 168.458  0.00  0.00    +0.000 C 
ATOM      4  C10 UNL     1     146.841 163.529 167.552  0.00  0.00    +0.000 C 
ATOM      5  C11 UNL     1     145.936 164.249 168.481  0.00  0.00    +0.000 C 
ENDROOT
BRANCH   1   6
ATOM      6  O1  UNL     1     146.588 164.826 170.715  0.00  0.00    +0.000 OA
ATOM      7  H1  UNL     1     145.707 165.290 170.813  0.00  0.00    +0.000 HD
ENDBRANCH   1   6
BRANCH   4   8
ATOM      8  O3  UNL     1     146.228 162.896 166.508  0.00  0.00    +0.000 OA
ATOM      9  H11 UNL     1     146.203 163.424 165.680  0.00  0.00    +0.000 HD
ENDBRANCH   4   8
BRANCH   5  10
ATOM     10  O4  UNL     1     144.604 163.970 168.329  0.00  0.00    +0.000 OA
ATOM     11  H13 UNL     1     144.033 164.771 168.212  0.00  0.00    +0.000 HD
ENDBRANCH   5  10
BRANCH   3  12
ATOM     12  C3  UNL     1     148.739 162.028 167.808  0.00  0.00    +0.000 C 
BRANCH  12  13
ATOM     13  S1  UNL     1     150.065 163.223 168.006  0.00  0.00    +0.000 S 
BRANCH  13  14
ATOM     14  C4  UNL     1     150.980 163.291 166.460  0.00  0.00    +0.000 A 
ATOM     15  C5  UNL     1     151.602 162.164 165.972  0.00  0.00    +0.000 A 
ATOM     16  C6  UNL     1     152.306 162.205 164.788  0.00  0.00    +0.000 A 
ATOM     17  C7  UNL     1     152.390 163.391 164.080  0.00  0.00    +0.000 A 
ATOM     18  F1  UNL     1     153.072 163.440 162.928  0.00  0.00    +0.000 F 
ATOM     19  C8  UNL     1     151.779 164.544 164.538  0.00  0.00    +0.000 A 
ATOM     20  C9  UNL     1     151.087 164.452 165.726  0.00  0.00    +0.000 A 
ENDBRANCH  13  14
ENDBRANCH  12  13
ENDBRANCH   3  12
TORSDOF 6
ENDMDL
MODEL 2
REMARK VINA RESULT:      -4.9     11.342     12.364
REMARK  Name = ./3D_structures\o66_MMV1581550_3D.pdb
REMARK  6 active torsions:
REMARK  status: ('A' for Active; 'I' for Inactive)
REMARK    1  A    between atoms: O1_1  and  C1_2
REMARK    2  A    between atoms: C2_4  and  C3_5
REMARK    3  A    between atoms: C3_5  and  S1_6
REMARK    4  A    between atoms: S1_6  and  C4_7
REMARK    5  A    between atoms: C10_14  and  O3_15
REMARK    6  A    between atoms: C11_16  and  O4_17
REMARK                            x       y       z     vdW  Elec       q    Type
REMARK                         _______ _______ _______ _____ _____    ______ ____
ROOT
ATOM      1  C1  UNL     1     148.794 151.585 166.456  0.00  0.00    +0.000 C 
ATOM      2  O2  UNL     1     148.527 151.879 167.809  0.00  0.00    +0.000 OA
ATOM      3  C2  UNL     1     147.449 152.743 167.741  0.00  0.00    +0.000 C 
ATOM      4  C10 UNL     1     146.503 151.962 166.820  0.00  0.00    +0.000 C 
ATOM      5  C11 UNL     1     147.434 151.394 165.814  0.00  0.00    +0.000 C 
ENDROOT
BRANCH   1   6
ATOM      6  O1  UNL     1     149.546 150.435 166.420  0.00  0.00    +0.000 OA
ATOM      7  H1  UNL     1     150.452 150.687 166.076  0.00  0.00    +0.000 HD
ENDBRANCH   1   6
BRANCH   4   8
ATOM      8  O3  UNL     1     145.574 152.837 166.334  0.00  0.00    +0.000 OA
ATOM      9  H11 UNL     1     144.833 152.406 165.852  0.00  0.00    +0.000 HD
ENDBRANCH   4   8
BRANCH   5  10
ATOM     10  O4  UNL     1     147.416 152.013 164.592  0.00  0.00    +0.000 OA
ATOM     11  H13 UNL     1     146.994 152.909 164.599  0.00  0.00    +0.000 HD
ENDBRANCH   5  10
BRANCH   3  12
ATOM     12  C3  UNL     1     146.738 152.904 169.051  0.00  0.00    +0.000 C 
BRANCH  12  13
ATOM     13  S1  UNL     1     147.299 151.749 170.307  0.00  0.00    +0.000 S 
BRANCH  13  14
ATOM     14  C4  UNL     1     148.412 152.632 171.410  0.00  0.00    +0.000 A 
ATOM     15  C5  UNL     1     149.461 153.360 170.898  0.00  0.00    +0.000 A 
ATOM     16  C6  UNL     1     150.320 154.041 171.734  0.00  0.00    +0.000 A 
ATOM     17  C7  UNL     1     150.126 153.993 173.104  0.00  0.00    +0.000 A 
ATOM     18  F1  UNL     1     150.956 154.651 173.925  0.00  0.00    +0.000 F 
ATOM     19  C8  UNL     1     149.083 153.271 173.656  0.00  0.00    +0.000 A 
ATOM     20  C9  UNL     1     148.252 152.608 172.778  0.00  0.00    +0.000 A 
ENDBRANCH  13  14
ENDBRANCH  12  13
ENDBRANCH   3  12
TORSDOF 6
ENDMDL
MODEL 3
REMARK VINA RESULT:      -4.8     10.525     12.227
REMARK  Name = ./3D_structures\o66_MMV1581550_3D.pdb
REMARK  6 active torsions:
REMARK  status: ('A' for Active; 'I' for Inactive)
REMARK    1  A    between atoms: O1_1  and  C1_2
REMARK    2  A    between atoms: C2_4  and  C3_5
REMARK    3  A    between atoms: C3_5  and  S1_6
REMARK    4  A    between atoms: S1_6  and  C4_7
REMARK    5  A    between atoms: C10_14  and  O3_15
REMARK    6  A    between atoms: C11_16  and  O4_17
REMARK                            x       y       z     vdW  Elec       q    Type
REMARK                         _______ _______ _______ _____ _____    ______ ____
ROOT
ATOM      1  C1  UNL     1     158.456 156.701 162.908  0.00  0.00    +0.000 C 
ATOM      2  O2  UNL     1     158.565 157.766 163.827  0.00  0.00    +0.000 OA
ATOM      3  C2  UNL     1     157.386 157.689 164.545  0.00  0.00    +0.000 C 
ATOM      4  C10 UNL     1     157.375 156.205 164.934  0.00  0.00    +0.000 C 
ATOM      5  C11 UNL     1     157.874 155.548 163.702  0.00  0.00    +0.000 C 
ENDROOT
BRANCH   1   6
ATOM      6  O1  UNL     1     159.718 156.420 162.442  0.00  0.00    +0.000 OA
ATOM      7  H1  UNL     1     159.631 156.211 161.467  0.00  0.00    +0.000 HD
ENDBRANCH   1   6
BRANCH   4   8
ATOM      8  O3  UNL     1     156.100 155.878 165.300  0.00  0.00    +0.000 OA
ATOM      9  H11 UNL     1     155.965 154.918 165.464  0.00  0.00    +0.000 HD
ENDBRANCH   4   8
BRANCH   5  10
ATOM     10  O4  UNL     1     156.917 154.916 162.952  0.00  0.00    +0.000 OA
ATOM     11  H13 UNL     1     156.648 154.030 163.305  0.00  0.00    +0.000 HD
ENDBRANCH   5  10
BRANCH   3  12
ATOM     12  C3  UNL     1     157.424 158.469 165.826  0.00  0.00    +0.000 C 
BRANCH  12  13
ATOM     13  S1  UNL     1     158.625 157.838 167.002  0.00  0.00    +0.000 S 
BRANCH  13  14
ATOM     14  C4  UNL     1     157.890 157.927 168.641  0.00  0.00    +0.000 A 
ATOM     15  C5  UNL     1     156.669 157.342 168.886  0.00  0.00    +0.000 A 
ATOM     16  C6  UNL     1     156.096 157.403 170.138  0.00  0.00    +0.000 A 
ATOM     17  C7  UNL     1     156.754 158.061 171.162  0.00  0.00    +0.000 A 
ATOM     18  F1  UNL     1     156.206 158.126 172.383  0.00  0.00    +0.000 F 
ATOM     19  C8  UNL     1     157.983 158.662 170.955  0.00  0.00    +0.000 A 
ATOM     20  C9  UNL     1     158.514 158.572 169.686  0.00  0.00    +0.000 A 
ENDBRANCH  13  14
ENDBRANCH  12  13
ENDBRANCH   3  12
TORSDOF 6
ENDMDL
MODEL 4
REMARK VINA RESULT:      -4.8      5.149      6.505
REMARK  Name = ./3D_structures\o66_MMV1581550_3D.pdb
REMARK  6 active torsions:
REMARK  status: ('A' for Active; 'I' for Inactive)
REMARK    1  A    between atoms: O1_1  and  C1_2
REMARK    2  A    between atoms: C2_4  and  C3_5
REMARK    3  A    between atoms: C3_5  and  S1_6
REMARK    4  A    between atoms: S1_6  and  C4_7
REMARK    5  A    between atoms: C10_14  and  O3_15
REMARK    6  A    between atoms: C11_16  and  O4_17
REMARK                            x       y       z     vdW  Elec       q    Type
REMARK                         _______ _______ _______ _____ _____    ______ ____
ROOT
ATOM      1  C1  UNL     1     146.835 166.176 166.320  0.00  0.00    +0.000 C 
ATOM      2  O2  UNL     1     146.328 164.900 166.644  0.00  0.00    +0.000 OA
ATOM      3  C2  UNL     1     144.980 165.133 166.843  0.00  0.00    +0.000 C 
ATOM      4  C10 UNL     1     144.625 165.910 165.568  0.00  0.00    +0.000 C 
ATOM      5  C11 UNL     1     145.807 166.788 165.390  0.00  0.00    +0.000 C 
ENDROOT
BRANCH   1   6
ATOM      6  O1  UNL     1     148.049 165.998 165.701  0.00  0.00    +0.000 OA
ATOM      7  H1  UNL     1     147.863 165.603 164.800  0.00  0.00    +0.000 HD
ENDBRANCH   1   6
BRANCH   4   8
ATOM      8  O3  UNL     1     143.440 166.555 165.787  0.00  0.00    +0.000 OA
ATOM      9  H11 UNL     1     142.938 166.756 164.966  0.00  0.00    +0.000 HD
ENDBRANCH   4   8
BRANCH   5  10
ATOM     10  O4  UNL     1     145.611 168.101 165.728  0.00  0.00    +0.000 OA
ATOM     11  H13 UNL     1     145.188 168.232 166.615  0.00  0.00    +0.000 HD
ENDBRANCH   5  10
BRANCH   3  12
ATOM     12  C3  UNL     1     144.156 163.880 166.827  0.00  0.00    +0.000 C 
BRANCH  12  13
ATOM     13  S1  UNL     1     145.087 162.428 166.326  0.00  0.00    +0.000 S 
BRANCH  13  14
ATOM     14  C4  UNL     1     144.469 161.905 164.721  0.00  0.00    +0.000 A 
ATOM     15  C5  UNL     1     144.192 160.578 164.484  0.00  0.00    +0.000 A 
ATOM     16  C6  UNL     1     143.718 160.165 163.257  0.00  0.00    +0.000 A 
ATOM     17  C7  UNL     1     143.517 161.094 162.251  0.00  0.00    +0.000 A 
ATOM     18  F1  UNL     1     143.057 160.703 161.055  0.00  0.00    +0.000 F 
ATOM     19  C8  UNL     1     143.785 162.436 162.451  0.00  0.00    +0.000 A 
ATOM     20  C9  UNL     1     144.257 162.798 163.694  0.00  0.00    +0.000 A 
ENDBRANCH  13  14
ENDBRANCH  12  13
ENDBRANCH   3  12
TORSDOF 6
ENDMDL
MODEL 5
REMARK VINA RESULT:      -4.7      1.162      1.908
REMARK  Name = ./3D_structures\o66_MMV1581550_3D.pdb
REMARK  6 active torsions:
REMARK  status: ('A' for Active; 'I' for Inactive)
REMARK    1  A    between atoms: O1_1  and  C1_2
REMARK    2  A    between atoms: C2_4  and  C3_5
REMARK    3  A    between atoms: C3_5  and  S1_6
REMARK    4  A    between atoms: S1_6  and  C4_7
REMARK    5  A    between atoms: C10_14  and  O3_15
REMARK    6  A    between atoms: C11_16  and  O4_17
REMARK                            x       y       z     vdW  Elec       q    Type
REMARK                         _______ _______ _______ _____ _____    ______ ____
ROOT
ATOM      1  C1  UNL     1     146.534 165.447 167.546  0.00  0.00    +0.000 C 
ATOM      2  O2  UNL     1     147.329 164.448 166.945  0.00  0.00    +0.000 OA
ATOM      3  C2  UNL     1     147.805 163.727 168.025  0.00  0.00    +0.000 C 
ATOM      4  C10 UNL     1     146.506 163.456 168.794  0.00  0.00    +0.000 C 
ATOM      5  C11 UNL     1     145.778 164.741 168.654  0.00  0.00    +0.000 C 
ENDROOT
BRANCH   1   6
ATOM      6  O1  UNL     1     145.690 165.945 166.583  0.00  0.00    +0.000 OA
ATOM      7  H1  UNL     1     144.852 165.398 166.616  0.00  0.00    +0.000 HD
ENDBRANCH   1   6
BRANCH   4   8
ATOM      8  O3  UNL     1     146.841 163.105 170.071  0.00  0.00    +0.000 OA
ATOM      9  H11 UNL     1     147.261 163.829 170.587  0.00  0.00    +0.000 HD
ENDBRANCH   4   8
BRANCH   5  10
ATOM     10  O4  UNL     1     145.770 165.529 169.775  0.00  0.00    +0.000 OA
ATOM     11  H13 UNL     1     146.639 165.565 170.250  0.00  0.00    +0.000 HD
ENDBRANCH   5  10
BRANCH   3  12
ATOM     12  C3  UNL     1     148.365 162.390 167.640  0.00  0.00    +0.000 C 
BRANCH  12  13
ATOM     13  S1  UNL     1     150.121 162.233 167.981  0.00  0.00    +0.000 S 
BRANCH  13  14
ATOM     14  C4  UNL     1     151.012 162.603 166.464  0.00  0.00    +0.000 A 
ATOM     15  C5  UNL     1     151.622 161.594 165.754  0.00  0.00    +0.000 A 
ATOM     16  C6  UNL     1     152.307 161.867 164.590  0.00  0.00    +0.000 A 
ATOM     17  C7  UNL     1     152.384 163.169 164.127  0.00  0.00    +0.000 A 
ATOM     18  F1  UNL     1     153.048 163.443 162.996  0.00  0.00    +0.000 F 
ATOM     19  C8  UNL     1     151.784 164.210 164.813  0.00  0.00    +0.000 A 
ATOM     20  C9  UNL     1     151.111 163.886 165.971  0.00  0.00    +0.000 A 
ENDBRANCH  13  14
ENDBRANCH  12  13
ENDBRANCH   3  12
TORSDOF 6
ENDMDL
MODEL 6
REMARK VINA RESULT:      -4.7      1.527      2.465
REMARK  Name = ./3D_structures\o66_MMV1581550_3D.pdb
REMARK  6 active torsions:
REMARK  status: ('A' for Active; 'I' for Inactive)
REMARK    1  A    between atoms: O1_1  and  C1_2
REMARK    2  A    between atoms: C2_4  and  C3_5
REMARK    3  A    between atoms: C3_5  and  S1_6
REMARK    4  A    between atoms: S1_6  and  C4_7
REMARK    5  A    between atoms: C10_14  and  O3_15
REMARK    6  A    between atoms: C11_16  and  O4_17
REMARK                            x       y       z     vdW  Elec       q    Type
REMARK                         _______ _______ _______ _____ _____    ______ ____
ROOT
ATOM      1  C1  UNL     1     145.551 163.177 166.669  0.00  0.00    +0.000 C 
ATOM      2  O2  UNL     1     146.815 163.799 166.606  0.00  0.00    +0.000 OA
ATOM      3  C2  UNL     1     146.705 164.839 167.510  0.00  0.00    +0.000 C 
ATOM      4  C10 UNL     1     146.162 164.102 168.741  0.00  0.00    +0.000 C 
ATOM      5  C11 UNL     1     145.194 163.151 168.142  0.00  0.00    +0.000 C 
ENDROOT
BRANCH   1   6
ATOM      6  O1  UNL     1     145.681 161.912 166.149  0.00  0.00    +0.000 OA
ATOM      7  H1  UNL     1     145.719 162.007 165.153  0.00  0.00    +0.000 HD
ENDBRANCH   1   6
BRANCH   4   8
ATOM      8  O3  UNL     1     145.626 165.033 169.585  0.00  0.00    +0.000 OA
ATOM      9  H11 UNL     1     144.742 164.790 169.938  0.00  0.00    +0.000 HD
ENDBRANCH   4   8
BRANCH   5  10
ATOM     10  O4  UNL     1     143.875 163.489 168.297  0.00  0.00    +0.000 OA
ATOM     11  H13 UNL     1     143.246 162.736 168.160  0.00  0.00    +0.000 HD
ENDBRANCH   5  10
BRANCH   3  12
ATOM     12  C3  UNL     1     148.030 165.418 167.906  0.00  0.00    +0.000 C 
BRANCH  12  13
ATOM     13  S1  UNL     1     149.318 164.180 168.089  0.00  0.00    +0.000 S 
BRANCH  13  14
ATOM     14  C4  UNL     1     150.447 164.350 166.700  0.00  0.00    +0.000 A 
ATOM     15  C5  UNL     1     151.375 163.368 166.437  0.00  0.00    +0.000 A 
ATOM     16  C6  UNL     1     152.245 163.488 165.375  0.00  0.00    +0.000 A 
ATOM     17  C7  UNL     1     152.186 164.606 164.562  0.00  0.00    +0.000 A 
ATOM     18  F1  UNL     1     153.027 164.732 163.527  0.00  0.00    +0.000 F 
ATOM     19  C8  UNL     1     151.267 165.614 164.794  0.00  0.00    +0.000 A 
ATOM     20  C9  UNL     1     150.419 165.447 165.868  0.00  0.00    +0.000 A 
ENDBRANCH  13  14
ENDBRANCH  12  13
ENDBRANCH   3  12
TORSDOF 6
ENDMDL
MODEL 7
REMARK VINA RESULT:      -4.7      1.663      2.045
REMARK  Name = ./3D_structures\o66_MMV1581550_3D.pdb
REMARK  6 active torsions:
REMARK  status: ('A' for Active; 'I' for Inactive)
REMARK    1  A    between atoms: O1_1  and  C1_2
REMARK    2  A    between atoms: C2_4  and  C3_5
REMARK    3  A    between atoms: C3_5  and  S1_6
REMARK    4  A    between atoms: S1_6  and  C4_7
REMARK    5  A    between atoms: C10_14  and  O3_15
REMARK    6  A    between atoms: C11_16  and  O4_17
REMARK                            x       y       z     vdW  Elec       q    Type
REMARK                         _______ _______ _______ _____ _____    ______ ____
ROOT
ATOM      1  C1  UNL     1     146.974 164.636 169.356  0.00  0.00    +0.000 C 
ATOM      2  O2  UNL     1     148.056 165.171 168.626  0.00  0.00    +0.000 OA
ATOM      3  C2  UNL     1     147.699 164.941 167.311  0.00  0.00    +0.000 C 
ATOM      4  C10 UNL     1     146.273 165.508 167.289  0.00  0.00    +0.000 C 
ATOM      5  C11 UNL     1     145.733 165.061 168.596  0.00  0.00    +0.000 C 
ENDROOT
BRANCH   1   6
ATOM      6  O1  UNL     1     147.014 165.175 170.619  0.00  0.00    +0.000 OA
ATOM      7  H1  UNL     1     147.944 165.516 170.763  0.00  0.00    +0.000 HD
ENDBRANCH   1   6
BRANCH   4   8
ATOM      8  O3  UNL     1     145.639 165.006 166.188  0.00  0.00    +0.000 OA
ATOM      9  H11 UNL     1     145.660 165.604 165.408  0.00  0.00    +0.000 HD
ENDBRANCH   4   8
BRANCH   5  10
ATOM     10  O4  UNL     1     144.855 164.011 168.534  0.00  0.00    +0.000 OA
ATOM     11  H13 UNL     1     144.390 163.821 169.389  0.00  0.00    +0.000 HD
ENDBRANCH   5  10
BRANCH   3  12
ATOM     12  C3  UNL     1     148.498 165.750 166.333  0.00  0.00    +0.000 C 
BRANCH  12  13
ATOM     13  S1  UNL     1     150.253 165.782 166.708  0.00  0.00    +0.000 S 
BRANCH  13  14
ATOM     14  C4  UNL     1     150.983 164.273 166.056  0.00  0.00    +0.000 A 
ATOM     15  C5  UNL     1     150.907 163.101 166.772  0.00  0.00    +0.000 A 
ATOM     16  C6  UNL     1     151.463 161.938 166.282  0.00  0.00    +0.000 A 
ATOM     17  C7  UNL     1     152.105 161.948 165.056  0.00  0.00    +0.000 A 
ATOM     18  F1  UNL     1     152.648 160.824 164.570  0.00  0.00    +0.000 F 
ATOM     19  C8  UNL     1     152.202 163.108 164.307  0.00  0.00    +0.000 A 
ATOM     20  C9  UNL     1     151.630 164.243 164.840  0.00  0.00    +0.000 A 
ENDBRANCH  13  14
ENDBRANCH  12  13
ENDBRANCH   3  12
TORSDOF 6
ENDMDL
MODEL 8
REMARK VINA RESULT:      -4.7      1.911      2.301
REMARK  Name = ./3D_structures\o66_MMV1581550_3D.pdb
REMARK  6 active torsions:
REMARK  status: ('A' for Active; 'I' for Inactive)
REMARK    1  A    between atoms: O1_1  and  C1_2
REMARK    2  A    between atoms: C2_4  and  C3_5
REMARK    3  A    between atoms: C3_5  and  S1_6
REMARK    4  A    between atoms: S1_6  and  C4_7
REMARK    5  A    between atoms: C10_14  and  O3_15
REMARK    6  A    between atoms: C11_16  and  O4_17
REMARK                            x       y       z     vdW  Elec       q    Type
REMARK                         _______ _______ _______ _____ _____    ______ ____
ROOT
ATOM      1  C1  UNL     1     145.691 164.353 167.507  0.00  0.00    +0.000 C 
ATOM      2  O2  UNL     1     147.087 164.447 167.686  0.00  0.00    +0.000 OA
ATOM      3  C2  UNL     1     147.532 164.943 166.475  0.00  0.00    +0.000 C 
ATOM      4  C10 UNL     1     146.598 166.146 166.289  0.00  0.00    +0.000 C 
ATOM      5  C11 UNL     1     145.298 165.618 166.771  0.00  0.00    +0.000 C 
ENDROOT
BRANCH   1   6
ATOM      6  O1  UNL     1     145.114 164.280 168.752  0.00  0.00    +0.000 OA
ATOM      7  H1  UNL     1     145.175 163.326 169.048  0.00  0.00    +0.000 HD
ENDBRANCH   1   6
BRANCH   4   8
ATOM      8  O3  UNL     1     146.635 166.506 164.972  0.00  0.00    +0.000 OA
ATOM      9  H11 UNL     1     147.143 165.886 164.403  0.00  0.00    +0.000 HD
ENDBRANCH   4   8
BRANCH   5  10
ATOM     10  O4  UNL     1     144.395 165.313 165.788  0.00  0.00    +0.000 OA
ATOM     11  H13 UNL     1     144.097 166.094 165.256  0.00  0.00    +0.000 HD
ENDBRANCH   5  10
BRANCH   3  12
ATOM     12  C3  UNL     1     148.928 165.488 166.537  0.00  0.00    +0.000 C 
BRANCH  12  13
ATOM     13  S1  UNL     1     150.140 164.270 167.057  0.00  0.00    +0.000 S 
BRANCH  13  14
ATOM     14  C4  UNL     1     151.352 164.101 165.739  0.00  0.00    +0.000 A 
ATOM     15  C5  UNL     1     151.739 162.853 165.308  0.00  0.00    +0.000 A 
ATOM     16  C6  UNL     1     152.667 162.713 164.299  0.00  0.00    +0.000 A 
ATOM     17  C7  UNL     1     153.216 163.838 163.709  0.00  0.00    +0.000 A 
ATOM     18  F1  UNL     1     154.118 163.712 162.727  0.00  0.00    +0.000 F 
ATOM     19  C8  UNL     1     152.852 165.110 164.115  0.00  0.00    +0.000 A 
ATOM     20  C9  UNL     1     151.921 165.197 165.128  0.00  0.00    +0.000 A 
ENDBRANCH  13  14
ENDBRANCH  12  13
ENDBRANCH   3  12
TORSDOF 6
ENDMDL
MODEL 9
REMARK VINA RESULT:      -4.6      4.123      5.117
REMARK  Name = ./3D_structures\o66_MMV1581550_3D.pdb
REMARK  6 active torsions:
REMARK  status: ('A' for Active; 'I' for Inactive)
REMARK    1  A    between atoms: O1_1  and  C1_2
REMARK    2  A    between atoms: C2_4  and  C3_5
REMARK    3  A    between atoms: C3_5  and  S1_6
REMARK    4  A    between atoms: S1_6  and  C4_7
REMARK    5  A    between atoms: C10_14  and  O3_15
REMARK    6  A    between atoms: C11_16  and  O4_17
REMARK                            x       y       z     vdW  Elec       q    Type
REMARK                         _______ _______ _______ _____ _____    ______ ____
ROOT
ATOM      1  C1  UNL     1     145.466 166.271 166.138  0.00  0.00    +0.000 C 
ATOM      2  O2  UNL     1     146.192 165.407 166.984  0.00  0.00    +0.000 OA
ATOM      3  C2  UNL     1     145.203 164.754 167.697  0.00  0.00    +0.000 C 
ATOM      4  C10 UNL     1     144.284 164.285 166.562  0.00  0.00    +0.000 C 
ATOM      5  C11 UNL     1     144.292 165.450 165.643  0.00  0.00    +0.000 C 
ENDROOT
BRANCH   1   6
ATOM      6  O1  UNL     1     146.300 166.649 165.112  0.00  0.00    +0.000 OA
ATOM      7  H1  UNL     1     146.784 165.826 164.810  0.00  0.00    +0.000 HD
ENDBRANCH   1   6
BRANCH   4   8
ATOM      8  O3  UNL     1     143.070 163.975 167.107  0.00  0.00    +0.000 OA
ATOM      9  H11 UNL     1     142.729 163.091 166.845  0.00  0.00    +0.000 HD
ENDBRANCH   4   8
BRANCH   5  10
ATOM     10  O4  UNL     1     143.157 166.217 165.666  0.00  0.00    +0.000 OA
ATOM     11  H13 UNL     1     143.096 166.825 166.445  0.00  0.00    +0.000 HD
ENDBRANCH   5  10
BRANCH   3  12
ATOM     12  C3  UNL     1     145.695 163.518 168.390  0.00  0.00    +0.000 C 
BRANCH  12  13
ATOM     13  S1  UNL     1     147.366 163.060 167.918  0.00  0.00    +0.000 S 
BRANCH  13  14
ATOM     14  C4  UNL     1     148.494 163.782 169.118  0.00  0.00    +0.000 A 
ATOM     15  C5  UNL     1     148.186 164.976 169.729  0.00  0.00    +0.000 A 
ATOM     16  C6  UNL     1     149.043 165.538 170.651  0.00  0.00    +0.000 A 
ATOM     17  C7  UNL     1     150.228 164.896 170.967  0.00  0.00    +0.000 A 
ATOM     18  F1  UNL     1     151.067 165.434 171.862  0.00  0.00    +0.000 F 
ATOM     19  C8  UNL     1     150.573 163.694 170.374  0.00  0.00    +0.000 A 
ATOM     20  C9  UNL     1     149.682 163.173 169.460  0.00  0.00    +0.000 A 
ENDBRANCH  13  14
ENDBRANCH  12  13
ENDBRANCH   3  12
TORSDOF 6
ENDMDL
