MODEL 1
REMARK VINA RESULT:      -7.3      0.000      0.000
REMARK  Name = ./3D_structures\o68_MMV1580844_3D.pdb
REMARK  10 active torsions:
REMARK  status: ('A' for Active; 'I' for Inactive)
REMARK    1  A    between atoms: C1_1  and  C2_2
REMARK    2  A    between atoms: C2_2  and  C3_3
REMARK    3  A    between atoms: C5_8  and  N4_9
REMARK    4  A    between atoms: C6_10  and  C7_11
REMARK    5  A    between atoms: C8_12  and  C9_13
REMARK    6  A    between atoms: C9_13  and  C10_14
REMARK    7  A    between atoms: C9_13  and  C11_15
REMARK    8  A    between atoms: C13_17  and  O1_18
REMARK    9  A    between atoms: O1_18  and  C14_19
REMARK   10  A    between atoms: C16_21  and  C18_23
REMARK                            x       y       z     vdW  Elec       q    Type
REMARK                         _______ _______ _______ _____ _____    ______ ____
ROOT
ATOM      1  C7  UNL     1     148.334 164.238 167.726  0.00  0.00    +0.000 C 
ATOM      2  C8  UNL     1     149.117 163.412 168.274  0.00  0.00    +0.000 C 
ENDROOT
BRANCH   1   9
ATOM      3  C3  UNL     1     146.122 165.162 167.458  0.00  0.00    +0.000 C 
ATOM      4  N1  UNL     1     145.260 166.036 166.898  0.00  0.00    +0.000 NA
ATOM      5  C4  UNL     1     145.733 166.955 165.976  0.00  0.00    +0.000 C 
ATOM      6  N2  UNL     1     144.816 167.870 165.390  0.00  0.00    +0.000 N 
ATOM      7  N3  UNL     1     147.006 166.906 165.710  0.00  0.00    +0.000 NA
ATOM      8  C5  UNL     1     147.946 166.090 166.199  0.00  0.00    +0.000 C 
ATOM      9  C6  UNL     1     147.449 165.160 167.136  0.00  0.00    +0.000 C 
ATOM     10  H6  UNL     1     145.254 168.643 164.810  0.00  0.00    +0.000 HD
ATOM     11  H7  UNL     1     143.794 167.804 165.516  0.00  0.00    +0.000 HD
BRANCH   8  12
ATOM     12  N4  UNL     1     149.296 166.164 165.815  0.00  0.00    +0.000 N 
ATOM     13  H8  UNL     1     149.974 166.612 166.459  0.00  0.00    +0.000 HD
ATOM     14  H9  UNL     1     149.626 165.790 164.911  0.00  0.00    +0.000 HD
ENDBRANCH   8  12
BRANCH   3  16
ATOM     15  C1  UNL     1     144.361 163.457 167.961  0.00  0.00    +0.000 C 
ATOM     16  C2  UNL     1     145.568 164.176 168.473  0.00  0.00    +0.000 C 
ENDBRANCH   3  16
ENDBRANCH   1   9
BRANCH   2  17
ATOM     17  C9  UNL     1     150.042 162.444 168.889  0.00  0.00    +0.000 C 
ATOM     18  C10 UNL     1     150.794 163.226 169.989  0.00  0.00    +0.000 C 
BRANCH  17  19
ATOM     19  C11 UNL     1     150.984 162.021 167.843  0.00  0.00    +0.000 A 
ATOM     20  C12 UNL     1     151.076 162.683 166.643  0.00  0.00    +0.000 A 
ATOM     21  C13 UNL     1     151.894 162.347 165.605  0.00  0.00    +0.000 A 
ATOM     22  C15 UNL     1     152.729 161.214 165.768  0.00  0.00    +0.000 A 
ATOM     23  C16 UNL     1     152.657 160.539 166.951  0.00  0.00    +0.000 A 
ATOM     24  C17 UNL     1     151.815 160.911 167.974  0.00  0.00    +0.000 A 
BRANCH  23  25
ATOM     25  C18 UNL     1     153.560 159.378 167.090  0.00  0.00    +0.000 A 
ATOM     26  C19 UNL     1     154.332 158.928 166.057  0.00  0.00    +0.000 A 
ATOM     27  C20 UNL     1     155.162 157.825 166.145  0.00  0.00    +0.000 A 
ATOM     28  N5  UNL     1     155.191 157.176 167.330  0.00  0.00    +0.000 NA
ATOM     29  C21 UNL     1     154.458 157.559 168.392  0.00  0.00    +0.000 A 
ATOM     30  C22 UNL     1     153.626 158.681 168.273  0.00  0.00    +0.000 A 
ENDBRANCH  23  25
BRANCH  21  31
ATOM     31  O1  UNL     1     152.013 162.982 164.405  0.00  0.00    +0.000 OA
ATOM     32  C14 UNL     1     152.217 164.352 164.270  0.00  0.00    +0.000 C 
ENDBRANCH  21  31
ENDBRANCH  17  19
ENDBRANCH   2  17
TORSDOF 7
ENDMDL
MODEL 2
REMARK VINA RESULT:      -6.5      1.055      2.146
REMARK  Name = ./3D_structures\o68_MMV1580844_3D.pdb
REMARK  10 active torsions:
REMARK  status: ('A' for Active; 'I' for Inactive)
REMARK    1  A    between atoms: C1_1  and  C2_2
REMARK    2  A    between atoms: C2_2  and  C3_3
REMARK    3  A    between atoms: C5_8  and  N4_9
REMARK    4  A    between atoms: C6_10  and  C7_11
REMARK    5  A    between atoms: C8_12  and  C9_13
REMARK    6  A    between atoms: C9_13  and  C10_14
REMARK    7  A    between atoms: C9_13  and  C11_15
REMARK    8  A    between atoms: C13_17  and  O1_18
REMARK    9  A    between atoms: O1_18  and  C14_19
REMARK   10  A    between atoms: C16_21  and  C18_23
REMARK                            x       y       z     vdW  Elec       q    Type
REMARK                         _______ _______ _______ _____ _____    ______ ____
ROOT
ATOM      1  C7  UNL     1     148.489 163.629 167.681  0.00  0.00    +0.000 C 
ATOM      2  C8  UNL     1     149.222 162.728 168.175  0.00  0.00    +0.000 C 
ENDROOT
BRANCH   1   9
ATOM      3  C3  UNL     1     148.197 165.789 166.645  0.00  0.00    +0.000 C 
ATOM      4  N1  UNL     1     147.421 166.749 166.101  0.00  0.00    +0.000 NA
ATOM      5  C4  UNL     1     146.055 166.544 166.010  0.00  0.00    +0.000 C 
ATOM      6  N2  UNL     1     145.247 167.564 165.437  0.00  0.00    +0.000 N 
ATOM      7  N3  UNL     1     145.607 165.411 166.469  0.00  0.00    +0.000 NA
ATOM      8  C5  UNL     1     146.276 164.395 167.025  0.00  0.00    +0.000 C 
ATOM      9  C6  UNL     1     147.666 164.620 167.111  0.00  0.00    +0.000 C 
ATOM     10  H6  UNL     1     144.236 167.294 165.256  0.00  0.00    +0.000 HD
ATOM     11  H7  UNL     1     145.604 168.502 165.202  0.00  0.00    +0.000 HD
BRANCH   8  12
ATOM     12  N4  UNL     1     145.647 163.221 167.472  0.00  0.00    +0.000 N 
ATOM     13  H8  UNL     1     146.224 162.486 167.922  0.00  0.00    +0.000 HD
ATOM     14  H9  UNL     1     144.632 163.070 167.358  0.00  0.00    +0.000 HD
ENDBRANCH   8  12
BRANCH   3  16
ATOM     15  C1  UNL     1     150.388 165.698 165.441  0.00  0.00    +0.000 C 
ATOM     16  C2  UNL     1     149.693 166.046 166.718  0.00  0.00    +0.000 C 
ENDBRANCH   3  16
ENDBRANCH   1   9
BRANCH   2  17
ATOM     17  C9  UNL     1     150.086 161.693 168.771  0.00  0.00    +0.000 C 
ATOM     18  C10 UNL     1     150.552 162.268 170.128  0.00  0.00    +0.000 C 
BRANCH  17  19
ATOM     19  C11 UNL     1     151.240 161.526 167.875  0.00  0.00    +0.000 A 
ATOM     20  C12 UNL     1     151.549 162.456 166.913  0.00  0.00    +0.000 A 
ATOM     21  C13 UNL     1     152.576 162.372 166.020  0.00  0.00    +0.000 A 
ATOM     22  C15 UNL     1     153.406 161.226 166.081  0.00  0.00    +0.000 A 
ATOM     23  C16 UNL     1     153.121 160.287 167.029  0.00  0.00    +0.000 A 
ATOM     24  C17 UNL     1     152.073 160.410 167.911  0.00  0.00    +0.000 A 
BRANCH  23  25
ATOM     25  C18 UNL     1     154.025 159.119 167.075  0.00  0.00    +0.000 A 
ATOM     26  C19 UNL     1     154.742 158.709 165.987  0.00  0.00    +0.000 A 
ATOM     27  C20 UNL     1     155.570 157.601 165.988  0.00  0.00    +0.000 A 
ATOM     28  N5  UNL     1     155.656 156.905 167.143  0.00  0.00    +0.000 NA
ATOM     29  C21 UNL     1     154.979 157.246 168.256  0.00  0.00    +0.000 A 
ATOM     30  C22 UNL     1     154.147 158.374 168.224  0.00  0.00    +0.000 A 
ENDBRANCH  23  25
BRANCH  21  31
ATOM     31  O1  UNL     1     152.912 163.276 165.056  0.00  0.00    +0.000 OA
ATOM     32  C14 UNL     1     152.505 163.180 163.730  0.00  0.00    +0.000 C 
ENDBRANCH  21  31
ENDBRANCH  17  19
ENDBRANCH   2  17
TORSDOF 7
ENDMDL
MODEL 3
REMARK VINA RESULT:      -6.5      9.655     12.324
REMARK  Name = ./3D_structures\o68_MMV1580844_3D.pdb
REMARK  10 active torsions:
REMARK  status: ('A' for Active; 'I' for Inactive)
REMARK    1  A    between atoms: C1_1  and  C2_2
REMARK    2  A    between atoms: C2_2  and  C3_3
REMARK    3  A    between atoms: C5_8  and  N4_9
REMARK    4  A    between atoms: C6_10  and  C7_11
REMARK    5  A    between atoms: C8_12  and  C9_13
REMARK    6  A    between atoms: C9_13  and  C10_14
REMARK    7  A    between atoms: C9_13  and  C11_15
REMARK    8  A    between atoms: C13_17  and  O1_18
REMARK    9  A    between atoms: O1_18  and  C14_19
REMARK   10  A    between atoms: C16_21  and  C18_23
REMARK                            x       y       z     vdW  Elec       q    Type
REMARK                         _______ _______ _______ _____ _____    ______ ____
ROOT
ATOM      1  C7  UNL     1     157.243 155.948 164.643  0.00  0.00    +0.000 C 
ATOM      2  C8  UNL     1     156.688 156.383 165.690  0.00  0.00    +0.000 C 
ENDROOT
BRANCH   1   9
ATOM      3  C3  UNL     1     158.621 156.325 162.699  0.00  0.00    +0.000 C 
ATOM      4  N1  UNL     1     159.227 155.897 161.572  0.00  0.00    +0.000 NA
ATOM      5  C4  UNL     1     159.088 154.573 161.191  0.00  0.00    +0.000 C 
ATOM      6  N2  UNL     1     159.729 154.133 160.000  0.00  0.00    +0.000 N 
ATOM      7  N3  UNL     1     158.365 153.819 161.968  0.00  0.00    +0.000 NA
ATOM      8  C5  UNL     1     157.722 154.132 163.098  0.00  0.00    +0.000 C 
ATOM      9  C6  UNL     1     157.873 155.484 163.472  0.00  0.00    +0.000 C 
ATOM     10  H6  UNL     1     159.715 153.084 159.838  0.00  0.00    +0.000 HD
ATOM     11  H7  UNL     1     160.186 154.775 159.334  0.00  0.00    +0.000 HD
BRANCH   8  12
ATOM     12  N4  UNL     1     156.978 153.197 163.837  0.00  0.00    +0.000 N 
ATOM     13  H8  UNL     1     156.631 152.345 163.358  0.00  0.00    +0.000 HD
ATOM     14  H9  UNL     1     156.765 153.339 164.837  0.00  0.00    +0.000 HD
ENDBRANCH   8  12
BRANCH   3  16
ATOM     15  C1  UNL     1     160.089 158.012 163.821  0.00  0.00    +0.000 C 
ATOM     16  C2  UNL     1     158.805 157.782 163.091  0.00  0.00    +0.000 C 
ENDBRANCH   3  16
ENDBRANCH   1   9
BRANCH   2  17
ATOM     17  C9  UNL     1     156.026 156.869 166.914  0.00  0.00    +0.000 C 
ATOM     18  C10 UNL     1     155.075 157.997 166.455  0.00  0.00    +0.000 C 
BRANCH  17  19
ATOM     19  C11 UNL     1     157.075 157.420 167.783  0.00  0.00    +0.000 A 
ATOM     20  C12 UNL     1     156.883 157.582 169.134  0.00  0.00    +0.000 A 
ATOM     21  C13 UNL     1     157.781 158.111 170.012  0.00  0.00    +0.000 A 
ATOM     22  C15 UNL     1     159.030 158.536 169.496  0.00  0.00    +0.000 A 
ATOM     23  C16 UNL     1     159.247 158.386 168.157  0.00  0.00    +0.000 A 
ATOM     24  C17 UNL     1     158.311 157.848 167.305  0.00  0.00    +0.000 A 
BRANCH  23  25
ATOM     25  C18 UNL     1     160.570 158.820 167.663  0.00  0.00    +0.000 A 
ATOM     26  C19 UNL     1     161.538 157.930 167.297  0.00  0.00    +0.000 A 
ATOM     27  C20 UNL     1     162.798 158.303 166.863  0.00  0.00    +0.000 A 
ATOM     28  N5  UNL     1     163.057 159.628 166.808  0.00  0.00    +0.000 NA
ATOM     29  C21 UNL     1     162.154 160.565 167.154  0.00  0.00    +0.000 A 
ATOM     30  C22 UNL     1     160.885 160.156 167.591  0.00  0.00    +0.000 A 
ENDBRANCH  23  25
BRANCH  21  31
ATOM     31  O1  UNL     1     157.625 158.283 171.355  0.00  0.00    +0.000 OA
ATOM     32  C14 UNL     1     156.433 158.681 171.951  0.00  0.00    +0.000 C 
ENDBRANCH  21  31
ENDBRANCH  17  19
ENDBRANCH   2  17
TORSDOF 7
ENDMDL
MODEL 4
REMARK VINA RESULT:      -6.4      3.712      5.538
REMARK  Name = ./3D_structures\o68_MMV1580844_3D.pdb
REMARK  10 active torsions:
REMARK  status: ('A' for Active; 'I' for Inactive)
REMARK    1  A    between atoms: C1_1  and  C2_2
REMARK    2  A    between atoms: C2_2  and  C3_3
REMARK    3  A    between atoms: C5_8  and  N4_9
REMARK    4  A    between atoms: C6_10  and  C7_11
REMARK    5  A    between atoms: C8_12  and  C9_13
REMARK    6  A    between atoms: C9_13  and  C10_14
REMARK    7  A    between atoms: C9_13  and  C11_15
REMARK    8  A    between atoms: C13_17  and  O1_18
REMARK    9  A    between atoms: O1_18  and  C14_19
REMARK   10  A    between atoms: C16_21  and  C18_23
REMARK                            x       y       z     vdW  Elec       q    Type
REMARK                         _______ _______ _______ _____ _____    ______ ____
ROOT
ATOM      1  C7  UNL     1     148.385 163.796 167.139  0.00  0.00    +0.000 C 
ATOM      2  C8  UNL     1     149.214 162.932 167.539  0.00  0.00    +0.000 C 
ENDROOT
BRANCH   1   9
ATOM      3  C3  UNL     1     146.140 164.500 166.603  0.00  0.00    +0.000 C 
ATOM      4  N1  UNL     1     145.255 165.427 166.182  0.00  0.00    +0.000 NA
ATOM      5  C4  UNL     1     145.709 166.691 165.845  0.00  0.00    +0.000 C 
ATOM      6  N2  UNL     1     144.768 167.660 165.400  0.00  0.00    +0.000 N 
ATOM      7  N3  UNL     1     146.990 166.897 165.961  0.00  0.00    +0.000 NA
ATOM      8  C5  UNL     1     147.952 166.060 166.363  0.00  0.00    +0.000 C 
ATOM      9  C6  UNL     1     147.473 164.777 166.702  0.00  0.00    +0.000 C 
ATOM     10  H6  UNL     1     145.146 168.647 165.300  0.00  0.00    +0.000 HD
ATOM     11  H7  UNL     1     143.783 167.437 165.191  0.00  0.00    +0.000 HD
BRANCH   8  12
ATOM     12  N4  UNL     1     149.304 166.434 166.442  0.00  0.00    +0.000 N 
ATOM     13  H8  UNL     1     149.813 166.281 167.333  0.00  0.00    +0.000 HD
ATOM     14  H9  UNL     1     149.799 166.858 165.641  0.00  0.00    +0.000 HD
ENDBRANCH   8  12
BRANCH   3  16
ATOM     15  C1  UNL     1     145.015 163.105 168.349  0.00  0.00    +0.000 C 
ATOM     16  C2  UNL     1     145.603 163.127 166.974  0.00  0.00    +0.000 C 
ENDBRANCH   3  16
ENDBRANCH   1   9
BRANCH   2  17
ATOM     17  C9  UNL     1     150.165 161.905 167.998  0.00  0.00    +0.000 C 
ATOM     18  C10 UNL     1     151.149 161.692 166.825  0.00  0.00    +0.000 C 
BRANCH  17  19
ATOM     19  C11 UNL     1     149.394 160.676 168.234  0.00  0.00    +0.000 A 
ATOM     20  C12 UNL     1     149.780 159.750 169.173  0.00  0.00    +0.000 A 
ATOM     21  C13 UNL     1     149.149 158.572 169.440  0.00  0.00    +0.000 A 
ATOM     22  C15 UNL     1     147.989 158.264 168.688  0.00  0.00    +0.000 A 
ATOM     23  C16 UNL     1     147.584 159.167 167.749  0.00  0.00    +0.000 A 
ATOM     24  C17 UNL     1     148.251 160.346 167.510  0.00  0.00    +0.000 A 
BRANCH  23  25
ATOM     25  C18 UNL     1     146.356 158.819 167.003  0.00  0.00    +0.000 A 
ATOM     26  C19 UNL     1     146.395 158.232 165.771  0.00  0.00    +0.000 A 
ATOM     27  C20 UNL     1     145.265 157.925 165.033  0.00  0.00    +0.000 A 
ATOM     28  N5  UNL     1     144.072 158.234 165.587  0.00  0.00    +0.000 NA
ATOM     29  C21 UNL     1     143.955 158.815 166.795  0.00  0.00    +0.000 A 
ATOM     30  C22 UNL     1     145.117 159.115 167.520  0.00  0.00    +0.000 A 
ENDBRANCH  23  25
BRANCH  21  31
ATOM     31  O1  UNL     1     149.502 157.633 170.364  0.00  0.00    +0.000 OA
ATOM     32  C14 UNL     1     150.324 157.893 171.455  0.00  0.00    +0.000 C 
ENDBRANCH  21  31
ENDBRANCH  17  19
ENDBRANCH   2  17
TORSDOF 7
ENDMDL
MODEL 5
REMARK VINA RESULT:      -6.3      4.684      7.925
REMARK  Name = ./3D_structures\o68_MMV1580844_3D.pdb
REMARK  10 active torsions:
REMARK  status: ('A' for Active; 'I' for Inactive)
REMARK    1  A    between atoms: C1_1  and  C2_2
REMARK    2  A    between atoms: C2_2  and  C3_3
REMARK    3  A    between atoms: C5_8  and  N4_9
REMARK    4  A    between atoms: C6_10  and  C7_11
REMARK    5  A    between atoms: C8_12  and  C9_13
REMARK    6  A    between atoms: C9_13  and  C10_14
REMARK    7  A    between atoms: C9_13  and  C11_15
REMARK    8  A    between atoms: C13_17  and  O1_18
REMARK    9  A    between atoms: O1_18  and  C14_19
REMARK   10  A    between atoms: C16_21  and  C18_23
REMARK                            x       y       z     vdW  Elec       q    Type
REMARK                         _______ _______ _______ _____ _____    ______ ____
ROOT
ATOM      1  C7  UNL     1     153.418 158.699 169.571  0.00  0.00    +0.000 C 
ATOM      2  C8  UNL     1     154.493 158.115 169.885  0.00  0.00    +0.000 C 
ENDROOT
BRANCH   1   9
ATOM      3  C3  UNL     1     152.170 160.285 168.250  0.00  0.00    +0.000 C 
ATOM      4  N1  UNL     1     151.025 160.922 167.928  0.00  0.00    +0.000 NA
ATOM      5  C4  UNL     1     149.866 160.619 168.621  0.00  0.00    +0.000 C 
ATOM      6  N2  UNL     1     148.665 161.297 168.275  0.00  0.00    +0.000 N 
ATOM      7  N3  UNL     1     149.968 159.719 169.556  0.00  0.00    +0.000 NA
ATOM      8  C5  UNL     1     151.041 159.030 169.959  0.00  0.00    +0.000 C 
ATOM      9  C6  UNL     1     152.214 159.350 169.244  0.00  0.00    +0.000 C 
ATOM     10  H6  UNL     1     147.783 160.921 168.731  0.00  0.00    +0.000 HD
ATOM     11  H7  UNL     1     148.635 162.096 167.624  0.00  0.00    +0.000 HD
BRANCH   8  12
ATOM     12  N4  UNL     1     150.992 158.077 170.991  0.00  0.00    +0.000 N 
ATOM     13  H8  UNL     1     151.877 157.798 171.455  0.00  0.00    +0.000 HD
ATOM     14  H9  UNL     1     150.103 157.647 171.293  0.00  0.00    +0.000 HD
ENDBRANCH   8  12
BRANCH   3  16
ATOM     15  C1  UNL     1     153.493 159.901 166.161  0.00  0.00    +0.000 C 
ATOM     16  C2  UNL     1     153.421 160.637 167.460  0.00  0.00    +0.000 C 
ENDBRANCH   3  16
ENDBRANCH   1   9
BRANCH   2  17
ATOM     17  C9  UNL     1     155.752 157.430 170.226  0.00  0.00    +0.000 C 
ATOM     18  C10 UNL     1     156.419 158.299 171.317  0.00  0.00    +0.000 C 
BRANCH  17  19
ATOM     19  C11 UNL     1     156.584 157.424 169.013  0.00  0.00    +0.000 A 
ATOM     20  C12 UNL     1     156.196 156.759 167.875  0.00  0.00    +0.000 A 
ATOM     21  C13 UNL     1     156.911 156.671 166.718  0.00  0.00    +0.000 A 
ATOM     22  C15 UNL     1     158.169 157.322 166.673  0.00  0.00    +0.000 A 
ATOM     23  C16 UNL     1     158.577 157.990 167.790  0.00  0.00    +0.000 A 
ATOM     24  C17 UNL     1     157.824 158.053 168.940  0.00  0.00    +0.000 A 
BRANCH  23  25
ATOM     25  C18 UNL     1     159.883 158.674 167.694  0.00  0.00    +0.000 A 
ATOM     26  C19 UNL     1     160.030 160.004 167.965  0.00  0.00    +0.000 A 
ATOM     27  C20 UNL     1     161.232 160.681 167.852  0.00  0.00    +0.000 A 
ATOM     28  N5  UNL     1     162.302 159.961 167.449  0.00  0.00    +0.000 NA
ATOM     29  C21 UNL     1     162.234 158.648 167.162  0.00  0.00    +0.000 A 
ATOM     30  C22 UNL     1     161.003 157.988 167.286  0.00  0.00    +0.000 A 
ENDBRANCH  23  25
BRANCH  21  31
ATOM     31  O1  UNL     1     156.556 156.023 165.572  0.00  0.00    +0.000 OA
ATOM     32  C14 UNL     1     157.461 155.375 164.738  0.00  0.00    +0.000 C 
ENDBRANCH  21  31
ENDBRANCH  17  19
ENDBRANCH   2  17
TORSDOF 7
ENDMDL
MODEL 6
REMARK VINA RESULT:      -6.3      3.662      9.075
REMARK  Name = ./3D_structures\o68_MMV1580844_3D.pdb
REMARK  10 active torsions:
REMARK  status: ('A' for Active; 'I' for Inactive)
REMARK    1  A    between atoms: C1_1  and  C2_2
REMARK    2  A    between atoms: C2_2  and  C3_3
REMARK    3  A    between atoms: C5_8  and  N4_9
REMARK    4  A    between atoms: C6_10  and  C7_11
REMARK    5  A    between atoms: C8_12  and  C9_13
REMARK    6  A    between atoms: C9_13  and  C10_14
REMARK    7  A    between atoms: C9_13  and  C11_15
REMARK    8  A    between atoms: C13_17  and  O1_18
REMARK    9  A    between atoms: O1_18  and  C14_19
REMARK   10  A    between atoms: C16_21  and  C18_23
REMARK                            x       y       z     vdW  Elec       q    Type
REMARK                         _______ _______ _______ _____ _____    ______ ____
ROOT
ATOM      1  C7  UNL     1     153.944 158.194 168.747  0.00  0.00    +0.000 C 
ATOM      2  C8  UNL     1     152.938 158.610 169.387  0.00  0.00    +0.000 C 
ENDROOT
BRANCH   1   9
ATOM      3  C3  UNL     1     155.253 158.050 166.726  0.00  0.00    +0.000 C 
ATOM      4  N1  UNL     1     156.333 157.625 166.039  0.00  0.00    +0.000 NA
ATOM      5  C4  UNL     1     157.290 156.862 166.688  0.00  0.00    +0.000 C 
ATOM      6  N2  UNL     1     158.423 156.417 165.953  0.00  0.00    +0.000 N 
ATOM      7  N3  UNL     1     157.071 156.605 167.945  0.00  0.00    +0.000 NA
ATOM      8  C5  UNL     1     156.045 156.970 168.721  0.00  0.00    +0.000 C 
ATOM      9  C6  UNL     1     155.080 157.746 168.046  0.00  0.00    +0.000 C 
ATOM     10  H6  UNL     1     159.191 155.968 166.532  0.00  0.00    +0.000 HD
ATOM     11  H7  UNL     1     158.510 156.520 164.931  0.00  0.00    +0.000 HD
BRANCH   8  12
ATOM     12  N4  UNL     1     155.951 156.616 170.078  0.00  0.00    +0.000 N 
ATOM     13  H8  UNL     1     155.987 155.612 170.336  0.00  0.00    +0.000 HD
ATOM     14  H9  UNL     1     155.843 157.326 170.820  0.00  0.00    +0.000 HD
ENDBRANCH   8  12
BRANCH   3  16
ATOM     15  C1  UNL     1     154.817 160.169 165.470  0.00  0.00    +0.000 C 
ATOM     16  C2  UNL     1     154.230 158.894 165.983  0.00  0.00    +0.000 C 
ENDBRANCH   3  16
ENDBRANCH   1   9
BRANCH   2  17
ATOM     17  C9  UNL     1     151.749 159.081 170.119  0.00  0.00    +0.000 C 
ATOM     18  C10 UNL     1     151.001 157.804 170.566  0.00  0.00    +0.000 C 
BRANCH  17  19
ATOM     19  C11 UNL     1     150.924 159.835 169.163  0.00  0.00    +0.000 A 
ATOM     20  C12 UNL     1     149.555 159.722 169.143  0.00  0.00    +0.000 A 
ATOM     21  C13 UNL     1     148.713 160.355 168.279  0.00  0.00    +0.000 A 
ATOM     22  C15 UNL     1     149.291 161.211 167.308  0.00  0.00    +0.000 A 
ATOM     23  C16 UNL     1     150.649 161.341 167.307  0.00  0.00    +0.000 A 
ATOM     24  C17 UNL     1     151.464 160.682 168.198  0.00  0.00    +0.000 A 
BRANCH  23  25
ATOM     25  C18 UNL     1     151.210 162.261 166.295  0.00  0.00    +0.000 A 
ATOM     26  C19 UNL     1     151.132 163.618 166.422  0.00  0.00    +0.000 A 
ATOM     27  C20 UNL     1     151.617 164.504 165.477  0.00  0.00    +0.000 A 
ATOM     28  N5  UNL     1     152.194 163.970 164.378  0.00  0.00    +0.000 NA
ATOM     29  C21 UNL     1     152.306 162.643 164.182  0.00  0.00    +0.000 A 
ATOM     30  C22 UNL     1     151.805 161.768 165.157  0.00  0.00    +0.000 A 
ENDBRANCH  23  25
BRANCH  21  31
ATOM     31  O1  UNL     1     147.353 160.268 168.233  0.00  0.00    +0.000 OA
ATOM     32  C14 UNL     1     146.536 161.224 167.638  0.00  0.00    +0.000 C 
ENDBRANCH  21  31
ENDBRANCH  17  19
ENDBRANCH   2  17
TORSDOF 7
ENDMDL
MODEL 7
REMARK VINA RESULT:      -6.3      2.419      9.302
REMARK  Name = ./3D_structures\o68_MMV1580844_3D.pdb
REMARK  10 active torsions:
REMARK  status: ('A' for Active; 'I' for Inactive)
REMARK    1  A    between atoms: C1_1  and  C2_2
REMARK    2  A    between atoms: C2_2  and  C3_3
REMARK    3  A    between atoms: C5_8  and  N4_9
REMARK    4  A    between atoms: C6_10  and  C7_11
REMARK    5  A    between atoms: C8_12  and  C9_13
REMARK    6  A    between atoms: C9_13  and  C10_14
REMARK    7  A    between atoms: C9_13  and  C11_15
REMARK    8  A    between atoms: C13_17  and  O1_18
REMARK    9  A    between atoms: O1_18  and  C14_19
REMARK   10  A    between atoms: C16_21  and  C18_23
REMARK                            x       y       z     vdW  Elec       q    Type
REMARK                         _______ _______ _______ _____ _____    ______ ____
ROOT
ATOM      1  C7  UNL     1     153.493 158.508 168.697  0.00  0.00    +0.000 C 
ATOM      2  C8  UNL     1     152.482 159.004 169.268  0.00  0.00    +0.000 C 
ENDROOT
BRANCH   1   9
ATOM      3  C3  UNL     1     154.866 158.205 166.736  0.00  0.00    +0.000 C 
ATOM      4  N1  UNL     1     155.950 157.699 166.112  0.00  0.00    +0.000 NA
ATOM      5  C4  UNL     1     156.848 156.931 166.834  0.00  0.00    +0.000 C 
ATOM      6  N2  UNL     1     157.986 156.400 166.167  0.00  0.00    +0.000 N 
ATOM      7  N3  UNL     1     156.573 156.748 168.094  0.00  0.00    +0.000 NA
ATOM      8  C5  UNL     1     155.537 157.196 168.811  0.00  0.00    +0.000 C 
ATOM      9  C6  UNL     1     154.632 157.977 168.062  0.00  0.00    +0.000 C 
ATOM     10  H6  UNL     1     158.712 155.950 166.796  0.00  0.00    +0.000 HD
ATOM     11  H7  UNL     1     158.114 156.448 165.144  0.00  0.00    +0.000 HD
BRANCH   8  12
ATOM     12  N4  UNL     1     155.379 156.917 170.179  0.00  0.00    +0.000 N 
ATOM     13  H8  UNL     1     154.530 157.261 170.664  0.00  0.00    +0.000 HD
ATOM     14  H9  UNL     1     156.086 156.384 170.711  0.00  0.00    +0.000 HD
ENDBRANCH   8  12
BRANCH   3  16
ATOM     15  C1  UNL     1     154.510 160.365 165.525  0.00  0.00    +0.000 C 
ATOM     16  C2  UNL     1     153.909 159.053 165.914  0.00  0.00    +0.000 C 
ENDBRANCH   3  16
ENDBRANCH   1   9
BRANCH   2  17
ATOM     17  C9  UNL     1     151.289 159.561 169.929  0.00  0.00    +0.000 C 
ATOM     18  C10 UNL     1     150.237 158.428 169.915  0.00  0.00    +0.000 C 
BRANCH  17  19
ATOM     19  C11 UNL     1     150.823 160.686 169.105  0.00  0.00    +0.000 A 
ATOM     20  C12 UNL     1     151.492 161.077 167.970  0.00  0.00    +0.000 A 
ATOM     21  C13 UNL     1     151.156 162.123 167.164  0.00  0.00    +0.000 A 
ATOM     22  C15 UNL     1     150.014 162.883 167.518  0.00  0.00    +0.000 A 
ATOM     23  C16 UNL     1     149.331 162.516 168.641  0.00  0.00    +0.000 A 
ATOM     24  C17 UNL     1     149.706 161.453 169.428  0.00  0.00    +0.000 A 
BRANCH  23  25
ATOM     25  C18 UNL     1     148.134 163.320 168.962  0.00  0.00    +0.000 A 
ATOM     26  C19 UNL     1     148.191 164.424 169.763  0.00  0.00    +0.000 A 
ATOM     27  C20 UNL     1     147.083 165.177 170.110  0.00  0.00    +0.000 A 
ATOM     28  N5  UNL     1     145.893 164.776 169.613  0.00  0.00    +0.000 NA
ATOM     29  C21 UNL     1     145.757 163.698 168.818  0.00  0.00    +0.000 A 
ATOM     30  C22 UNL     1     146.898 162.953 168.484  0.00  0.00    +0.000 A 
ENDBRANCH  23  25
BRANCH  21  31
ATOM     31  O1  UNL     1     151.794 162.535 166.032  0.00  0.00    +0.000 OA
ATOM     32  C14 UNL     1     151.645 163.802 165.478  0.00  0.00    +0.000 C 
ENDBRANCH  21  31
ENDBRANCH  17  19
ENDBRANCH   2  17
TORSDOF 7
ENDMDL
MODEL 8
REMARK VINA RESULT:      -6.3     10.042     14.756
REMARK  Name = ./3D_structures\o68_MMV1580844_3D.pdb
REMARK  10 active torsions:
REMARK  status: ('A' for Active; 'I' for Inactive)
REMARK    1  A    between atoms: C1_1  and  C2_2
REMARK    2  A    between atoms: C2_2  and  C3_3
REMARK    3  A    between atoms: C5_8  and  N4_9
REMARK    4  A    between atoms: C6_10  and  C7_11
REMARK    5  A    between atoms: C8_12  and  C9_13
REMARK    6  A    between atoms: C9_13  and  C10_14
REMARK    7  A    between atoms: C9_13  and  C11_15
REMARK    8  A    between atoms: C13_17  and  O1_18
REMARK    9  A    between atoms: O1_18  and  C14_19
REMARK   10  A    between atoms: C16_21  and  C18_23
REMARK                            x       y       z     vdW  Elec       q    Type
REMARK                         _______ _______ _______ _____ _____    ______ ____
ROOT
ATOM      1  C7  UNL     1     164.677 158.727 168.311  0.00  0.00    +0.000 C 
ATOM      2  C8  UNL     1     164.104 157.888 167.561  0.00  0.00    +0.000 C 
ENDROOT
BRANCH   1   9
ATOM      3  C3  UNL     1     164.796 160.942 169.260  0.00  0.00    +0.000 C 
ATOM      4  N1  UNL     1     165.382 161.866 170.048  0.00  0.00    +0.000 NA
ATOM      5  C4  UNL     1     166.522 161.525 170.757  0.00  0.00    +0.000 C 
ATOM      6  N2  UNL     1     167.134 162.507 171.583  0.00  0.00    +0.000 N 
ATOM      7  N3  UNL     1     166.955 160.306 170.606  0.00  0.00    +0.000 NA
ATOM      8  C5  UNL     1     166.459 159.314 169.858  0.00  0.00    +0.000 C 
ATOM      9  C6  UNL     1     165.299 159.679 169.142  0.00  0.00    +0.000 C 
ATOM     10  H6  UNL     1     167.909 162.150 172.214  0.00  0.00    +0.000 HD
ATOM     11  H7  UNL     1     166.852 163.499 171.585  0.00  0.00    +0.000 HD
BRANCH   8  12
ATOM     12  N4  UNL     1     167.041 158.037 169.802  0.00  0.00    +0.000 N 
ATOM     13  H8  UNL     1     168.017 157.918 170.131  0.00  0.00    +0.000 HD
ATOM     14  H9  UNL     1     166.524 157.219 169.440  0.00  0.00    +0.000 HD
ENDBRANCH   8  12
BRANCH   3  16
ATOM     15  C1  UNL     1     162.684 162.284 169.300  0.00  0.00    +0.000 C 
ATOM     16  C2  UNL     1     163.541 161.351 168.505  0.00  0.00    +0.000 C 
ENDBRANCH   3  16
ENDBRANCH   1   9
BRANCH   2  17
ATOM     17  C9  UNL     1     163.456 156.894 166.689  0.00  0.00    +0.000 C 
ATOM     18  C10 UNL     1     164.141 157.035 165.311  0.00  0.00    +0.000 C 
BRANCH  17  19
ATOM     19  C11 UNL     1     162.038 157.269 166.584  0.00  0.00    +0.000 A 
ATOM     20  C12 UNL     1     161.307 157.019 165.448  0.00  0.00    +0.000 A 
ATOM     21  C13 UNL     1     160.002 157.356 165.247  0.00  0.00    +0.000 A 
ATOM     22  C15 UNL     1     159.328 158.025 166.298  0.00  0.00    +0.000 A 
ATOM     23  C16 UNL     1     160.031 158.285 167.438  0.00  0.00    +0.000 A 
ATOM     24  C17 UNL     1     161.349 157.928 167.599  0.00  0.00    +0.000 A 
BRANCH  23  25
ATOM     25  C18 UNL     1     159.285 158.962 168.519  0.00  0.00    +0.000 A 
ATOM     26  C19 UNL     1     158.571 158.271 169.455  0.00  0.00    +0.000 A 
ATOM     27  C20 UNL     1     157.835 158.876 170.458  0.00  0.00    +0.000 A 
ATOM     28  N5  UNL     1     157.842 160.227 170.489  0.00  0.00    +0.000 NA
ATOM     29  C21 UNL     1     158.520 160.976 169.601  0.00  0.00    +0.000 A 
ATOM     30  C22 UNL     1     159.257 160.335 168.594  0.00  0.00    +0.000 A 
ENDBRANCH  23  25
BRANCH  21  31
ATOM     31  O1  UNL     1     159.247 157.122 164.136  0.00  0.00    +0.000 OA
ATOM     32  C14 UNL     1     157.953 156.612 164.173  0.00  0.00    +0.000 C 
ENDBRANCH  21  31
ENDBRANCH  17  19
ENDBRANCH   2  17
TORSDOF 7
ENDMDL
MODEL 9
REMARK VINA RESULT:      -6.2      3.331      5.133
REMARK  Name = ./3D_structures\o68_MMV1580844_3D.pdb
REMARK  10 active torsions:
REMARK  status: ('A' for Active; 'I' for Inactive)
REMARK    1  A    between atoms: C1_1  and  C2_2
REMARK    2  A    between atoms: C2_2  and  C3_3
REMARK    3  A    between atoms: C5_8  and  N4_9
REMARK    4  A    between atoms: C6_10  and  C7_11
REMARK    5  A    between atoms: C8_12  and  C9_13
REMARK    6  A    between atoms: C9_13  and  C10_14
REMARK    7  A    between atoms: C9_13  and  C11_15
REMARK    8  A    between atoms: C13_17  and  O1_18
REMARK    9  A    between atoms: O1_18  and  C14_19
REMARK   10  A    between atoms: C16_21  and  C18_23
REMARK                            x       y       z     vdW  Elec       q    Type
REMARK                         _______ _______ _______ _____ _____    ______ ____
ROOT
ATOM      1  C7  UNL     1     150.534 162.416 167.685  0.00  0.00    +0.000 C 
ATOM      2  C8  UNL     1     151.524 161.964 167.045  0.00  0.00    +0.000 C 
ENDROOT
BRANCH   1   9
ATOM      3  C3  UNL     1     149.585 163.907 169.328  0.00  0.00    +0.000 C 
ATOM      4  N1  UNL     1     148.542 164.381 170.039  0.00  0.00    +0.000 NA
ATOM      5  C4  UNL     1     147.284 163.837 169.838  0.00  0.00    +0.000 C 
ATOM      6  N2  UNL     1     146.191 164.342 170.594  0.00  0.00    +0.000 N 
ATOM      7  N3  UNL     1     147.200 162.883 168.955  0.00  0.00    +0.000 NA
ATOM      8  C5  UNL     1     148.158 162.338 168.199  0.00  0.00    +0.000 C 
ATOM      9  C6  UNL     1     149.433 162.903 168.416  0.00  0.00    +0.000 C 
ATOM     10  H6  UNL     1     145.234 163.996 170.294  0.00  0.00    +0.000 HD
ATOM     11  H7  UNL     1     146.304 165.003 171.378  0.00  0.00    +0.000 HD
BRANCH   8  12
ATOM     12  N4  UNL     1     147.909 161.308 167.277  0.00  0.00    +0.000 N 
ATOM     13  H8  UNL     1     148.709 160.892 166.764  0.00  0.00    +0.000 HD
ATOM     14  H9  UNL     1     146.953 160.960 167.094  0.00  0.00    +0.000 HD
ENDBRANCH   8  12
BRANCH   3  16
ATOM     15  C1  UNL     1     151.691 163.866 170.679  0.00  0.00    +0.000 C 
ATOM     16  C2  UNL     1     150.948 164.537 169.568  0.00  0.00    +0.000 C 
ENDBRANCH   3  16
ENDBRANCH   1   9
BRANCH   2  17
ATOM     17  C9  UNL     1     152.673 161.454 166.278  0.00  0.00    +0.000 C 
ATOM     18  C10 UNL     1     152.073 160.775 165.026  0.00  0.00    +0.000 C 
BRANCH  17  19
ATOM     19  C11 UNL     1     153.343 160.451 167.119  0.00  0.00    +0.000 A 
ATOM     20  C12 UNL     1     153.842 159.284 166.593  0.00  0.00    +0.000 A 
ATOM     21  C13 UNL     1     154.449 158.286 167.295  0.00  0.00    +0.000 A 
ATOM     22  C15 UNL     1     154.583 158.456 168.695  0.00  0.00    +0.000 A 
ATOM     23  C16 UNL     1     154.097 159.607 169.242  0.00  0.00    +0.000 A 
ATOM     24  C17 UNL     1     153.489 160.590 168.497  0.00  0.00    +0.000 A 
BRANCH  23  25
ATOM     25  C18 UNL     1     154.278 159.757 170.701  0.00  0.00    +0.000 A 
ATOM     26  C19 UNL     1     153.312 160.292 171.504  0.00  0.00    +0.000 A 
ATOM     27  C20 UNL     1     153.463 160.476 172.867  0.00  0.00    +0.000 A 
ATOM     28  N5  UNL     1     154.643 160.097 173.406  0.00  0.00    +0.000 NA
ATOM     29  C21 UNL     1     155.642 159.564 172.679  0.00  0.00    +0.000 A 
ATOM     30  C22 UNL     1     155.460 159.389 171.300  0.00  0.00    +0.000 A 
ENDBRANCH  23  25
BRANCH  21  31
ATOM     31  O1  UNL     1     154.957 157.119 166.806  0.00  0.00    +0.000 OA
ATOM     32  C14 UNL     1     156.136 157.035 166.073  0.00  0.00    +0.000 C 
ENDBRANCH  21  31
ENDBRANCH  17  19
ENDBRANCH   2  17
TORSDOF 7
ENDMDL
