MODEL 1
REMARK VINA RESULT:      -6.9      0.000      0.000
REMARK  Name = ./3D_structures\o70_MMV1579785_3D.pdb
REMARK  3 active torsions:
REMARK  status: ('A' for Active; 'I' for Inactive)
REMARK    1  A    between atoms: N1_9  and  C6_10
REMARK    2  A    between atoms: C6_10  and  C7_11
REMARK    3  A    between atoms: C10_15  and  N3_16
REMARK                            x       y       z     vdW  Elec       q    Type
REMARK                         _______ _______ _______ _____ _____    ______ ____
ROOT
ATOM      1  F1  UNL     1     150.636 165.237 167.063  0.00  0.00    +0.000 F 
ATOM      2  C1  UNL     1     149.312 165.203 166.951  0.00  0.00    +0.000 A 
ATOM      3  C2  UNL     1     148.636 166.197 166.309  0.00  0.00    +0.000 A 
ATOM      4  C3  UNL     1     147.275 166.200 166.182  0.00  0.00    +0.000 A 
ATOM      5  O1  UNL     1     146.671 167.241 165.509  0.00  0.00    +0.000 OA
ATOM      6  C4  UNL     1     145.296 167.531 165.728  0.00  0.00    +0.000 C 
ATOM      7  C5  UNL     1     144.558 166.267 165.926  0.00  0.00    +0.000 C 
ATOM      8  O2  UNL     1     143.383 166.173 165.465  0.00  0.00    +0.000 OA
ATOM      9  N1  UNL     1     145.095 165.150 166.613  0.00  0.00    +0.000 N 
ATOM     10  C8  UNL     1     146.516 165.139 166.737  0.00  0.00    +0.000 A 
ATOM     11  C9  UNL     1     147.246 164.187 167.357  0.00  0.00    +0.000 A 
ATOM     12  C10 UNL     1     148.598 164.133 167.510  0.00  0.00    +0.000 A 
ENDROOT
BRANCH  12  13
ATOM     13  N3  UNL     1     149.207 163.076 168.198  0.00  0.00    +0.000 N 
ATOM     14  C11 UNL     1     149.215 161.700 167.955  0.00  0.00    +0.000 C 
ATOM     15  O3  UNL     1     148.684 161.022 167.017  0.00  0.00    +0.000 OA
ATOM     16  C12 UNL     1     150.015 161.044 169.032  0.00  0.00    +0.000 A 
ATOM     17  C13 UNL     1     150.261 159.655 169.183  0.00  0.00    +0.000 A 
ATOM     18  C14 UNL     1     151.044 159.367 170.340  0.00  0.00    +0.000 A 
ATOM     19  C15 UNL     1     151.497 160.300 171.174  0.00  0.00    +0.000 A 
ATOM     20  C16 UNL     1     151.241 161.666 171.002  0.00  0.00    +0.000 A 
ATOM     21  C17 UNL     1     150.465 161.944 169.860  0.00  0.00    +0.000 A 
ATOM     22  C18 UNL     1     149.988 163.254 169.388  0.00  0.00    +0.000 C 
ATOM     23  O4  UNL     1     150.268 164.315 169.993  0.00  0.00    +0.000 OA
ENDBRANCH  12  13
BRANCH   9  24
ATOM     24  C6  UNL     1     144.340 163.951 166.971  0.00  0.00    +0.000 C 
BRANCH  24  25
ATOM     25  C7  UNL     1     144.639 162.977 165.871  0.00  0.00    +0.000 C 
ATOM     26  N2  UNL     1     144.902 162.191 164.973  0.00  0.00    +0.000 NA
ENDBRANCH  24  25
ENDBRANCH   9  24
TORSDOF 3
ENDMDL
MODEL 2
REMARK VINA RESULT:      -6.9      6.882      9.153
REMARK  Name = ./3D_structures\o70_MMV1579785_3D.pdb
REMARK  3 active torsions:
REMARK  status: ('A' for Active; 'I' for Inactive)
REMARK    1  A    between atoms: N1_9  and  C6_10
REMARK    2  A    between atoms: C6_10  and  C7_11
REMARK    3  A    between atoms: C10_15  and  N3_16
REMARK                            x       y       z     vdW  Elec       q    Type
REMARK                         _______ _______ _______ _____ _____    ______ ____
ROOT
ATOM      1  F1  UNL     1     152.118 160.530 169.062  0.00  0.00    +0.000 F 
ATOM      2  C1  UNL     1     151.548 159.398 169.462  0.00  0.00    +0.000 A 
ATOM      3  C2  UNL     1     150.191 159.270 169.497  0.00  0.00    +0.000 A 
ATOM      4  C3  UNL     1     149.569 158.125 169.911  0.00  0.00    +0.000 A 
ATOM      5  O1  UNL     1     148.191 158.077 169.907  0.00  0.00    +0.000 OA
ATOM      6  C4  UNL     1     147.507 157.131 170.720  0.00  0.00    +0.000 C 
ATOM      7  C5  UNL     1     148.279 155.872 170.754  0.00  0.00    +0.000 C 
ATOM      8  O2  UNL     1     147.648 154.775 170.776  0.00  0.00    +0.000 OA
ATOM      9  N1  UNL     1     149.695 155.826 170.769  0.00  0.00    +0.000 N 
ATOM     10  C8  UNL     1     150.347 157.016 170.328  0.00  0.00    +0.000 A 
ATOM     11  C9  UNL     1     151.681 157.207 170.267  0.00  0.00    +0.000 A 
ATOM     12  C10 UNL     1     152.352 158.322 169.863  0.00  0.00    +0.000 A 
ENDROOT
BRANCH  12  13
ATOM     13  N3  UNL     1     153.752 158.368 169.872  0.00  0.00    +0.000 N 
ATOM     14  C11 UNL     1     154.649 159.019 170.723  0.00  0.00    +0.000 C 
ATOM     15  O3  UNL     1     154.439 159.740 171.752  0.00  0.00    +0.000 OA
ATOM     16  C12 UNL     1     156.033 158.732 170.243  0.00  0.00    +0.000 A 
ATOM     17  C13 UNL     1     157.245 159.213 170.804  0.00  0.00    +0.000 A 
ATOM     18  C14 UNL     1     158.390 158.766 170.081  0.00  0.00    +0.000 A 
ATOM     19  C15 UNL     1     158.325 157.980 169.009  0.00  0.00    +0.000 A 
ATOM     20  C16 UNL     1     157.116 157.516 168.477  0.00  0.00    +0.000 A 
ATOM     21  C17 UNL     1     155.988 157.963 169.192  0.00  0.00    +0.000 A 
ATOM     22  C18 UNL     1     154.570 157.696 168.904  0.00  0.00    +0.000 C 
ATOM     23  O4  UNL     1     154.216 156.979 167.938  0.00  0.00    +0.000 OA
ENDBRANCH  12  13
BRANCH   9  24
ATOM     24  C6  UNL     1     150.486 154.614 170.970  0.00  0.00    +0.000 C 
BRANCH  24  25
ATOM     25  C7  UNL     1     150.577 154.467 172.459  0.00  0.00    +0.000 C 
ATOM     26  N2  UNL     1     150.665 154.363 173.674  0.00  0.00    +0.000 NA
ENDBRANCH  24  25
ENDBRANCH   9  24
TORSDOF 3
ENDMDL
MODEL 3
REMARK VINA RESULT:      -6.4     10.759     13.274
REMARK  Name = ./3D_structures\o70_MMV1579785_3D.pdb
REMARK  3 active torsions:
REMARK  status: ('A' for Active; 'I' for Inactive)
REMARK    1  A    between atoms: N1_9  and  C6_10
REMARK    2  A    between atoms: C6_10  and  C7_11
REMARK    3  A    between atoms: C10_15  and  N3_16
REMARK                            x       y       z     vdW  Elec       q    Type
REMARK                         _______ _______ _______ _____ _____    ______ ____
ROOT
ATOM      1  F1  UNL     1     157.684 159.470 164.803  0.00  0.00    +0.000 F 
ATOM      2  C1  UNL     1     157.921 158.208 164.458  0.00  0.00    +0.000 A 
ATOM      3  C2  UNL     1     158.221 157.877 163.171  0.00  0.00    +0.000 A 
ATOM      4  C3  UNL     1     158.461 156.590 162.778  0.00  0.00    +0.000 A 
ATOM      5  O1  UNL     1     158.769 156.343 161.457  0.00  0.00    +0.000 OA
ATOM      6  C4  UNL     1     158.585 155.041 160.912  0.00  0.00    +0.000 C 
ATOM      7  C5  UNL     1     158.923 154.033 161.938  0.00  0.00    +0.000 C 
ATOM      8  O2  UNL     1     159.492 152.963 161.572  0.00  0.00    +0.000 OA
ATOM      9  N1  UNL     1     158.637 154.198 163.316  0.00  0.00    +0.000 N 
ATOM     10  C8  UNL     1     158.397 155.542 163.731  0.00  0.00    +0.000 A 
ATOM     11  C9  UNL     1     158.097 155.938 164.986  0.00  0.00    +0.000 A 
ATOM     12  C10 UNL     1     157.850 157.201 165.431  0.00  0.00    +0.000 A 
ENDROOT
BRANCH  12  13
ATOM     13  N3  UNL     1     157.536 157.447 166.773  0.00  0.00    +0.000 N 
ATOM     14  C11 UNL     1     156.346 157.286 167.488  0.00  0.00    +0.000 C 
ATOM     15  O3  UNL     1     155.211 156.843 167.116  0.00  0.00    +0.000 OA
ATOM     16  C12 UNL     1     156.585 157.729 168.893  0.00  0.00    +0.000 A 
ATOM     17  C13 UNL     1     155.639 157.754 169.950  0.00  0.00    +0.000 A 
ATOM     18  C14 UNL     1     156.195 158.260 171.162  0.00  0.00    +0.000 A 
ATOM     19  C15 UNL     1     157.460 158.655 171.284  0.00  0.00    +0.000 A 
ATOM     20  C16 UNL     1     158.375 158.619 170.225  0.00  0.00    +0.000 A 
ATOM     21  C17 UNL     1     157.820 158.121 169.031  0.00  0.00    +0.000 A 
ATOM     22  C18 UNL     1     158.478 157.968 167.722  0.00  0.00    +0.000 C 
ATOM     23  O4  UNL     1     159.681 158.271 167.549  0.00  0.00    +0.000 OA
ENDBRANCH  12  13
BRANCH   9  24
ATOM     24  C6  UNL     1     158.804 153.159 164.331  0.00  0.00    +0.000 C 
BRANCH  24  25
ATOM     25  C7  UNL     1     157.596 152.285 164.175  0.00  0.00    +0.000 C 
ATOM     26  N2  UNL     1     156.600 151.589 164.046  0.00  0.00    +0.000 NA
ENDBRANCH  24  25
ENDBRANCH   9  24
TORSDOF 3
ENDMDL
MODEL 4
REMARK VINA RESULT:      -6.4      3.217      4.227
REMARK  Name = ./3D_structures\o70_MMV1579785_3D.pdb
REMARK  3 active torsions:
REMARK  status: ('A' for Active; 'I' for Inactive)
REMARK    1  A    between atoms: N1_9  and  C6_10
REMARK    2  A    between atoms: C6_10  and  C7_11
REMARK    3  A    between atoms: C10_15  and  N3_16
REMARK                            x       y       z     vdW  Elec       q    Type
REMARK                         _______ _______ _______ _____ _____    ______ ____
ROOT
ATOM      1  F1  UNL     1     152.197 163.512 170.179  0.00  0.00    +0.000 F 
ATOM      2  C1  UNL     1     150.930 163.376 169.800  0.00  0.00    +0.000 A 
ATOM      3  C2  UNL     1     149.976 164.257 170.213  0.00  0.00    +0.000 A 
ATOM      4  C3  UNL     1     148.662 164.144 169.852  0.00  0.00    +0.000 A 
ATOM      5  O1  UNL     1     147.763 165.086 170.306  0.00  0.00    +0.000 OA
ATOM      6  C4  UNL     1     146.373 164.784 170.347  0.00  0.00    +0.000 C 
ATOM      7  C5  UNL     1     146.023 163.947 169.181  0.00  0.00    +0.000 C 
ATOM      8  O2  UNL     1     144.899 164.121 168.626  0.00  0.00    +0.000 OA
ATOM      9  N1  UNL     1     146.881 162.951 168.651  0.00  0.00    +0.000 N 
ATOM     10  C8  UNL     1     148.254 163.073 169.018  0.00  0.00    +0.000 A 
ATOM     11  C9  UNL     1     149.247 162.239 168.644  0.00  0.00    +0.000 A 
ATOM     12  C10 UNL     1     150.568 162.305 168.972  0.00  0.00    +0.000 A 
ENDROOT
BRANCH  12  13
ATOM     13  N3  UNL     1     151.477 161.345 168.510  0.00  0.00    +0.000 N 
ATOM     14  C11 UNL     1     152.056 160.242 169.144  0.00  0.00    +0.000 C 
ATOM     15  O3  UNL     1     151.897 159.787 170.322  0.00  0.00    +0.000 OA
ATOM     16  C12 UNL     1     152.975 159.580 168.171  0.00  0.00    +0.000 A 
ATOM     17  C13 UNL     1     153.782 158.436 168.406  0.00  0.00    +0.000 A 
ATOM     18  C14 UNL     1     154.562 158.081 167.266  0.00  0.00    +0.000 A 
ATOM     19  C15 UNL     1     154.526 158.744 166.113  0.00  0.00    +0.000 A 
ATOM     20  C16 UNL     1     153.718 159.869 165.905  0.00  0.00    +0.000 A 
ATOM     21  C17 UNL     1     152.954 160.217 167.035  0.00  0.00    +0.000 A 
ATOM     22  C18 UNL     1     152.023 161.349 167.184  0.00  0.00    +0.000 C 
ATOM     23  O4  UNL     1     151.799 162.147 166.244  0.00  0.00    +0.000 OA
ENDBRANCH  12  13
BRANCH   9  24
ATOM     24  C6  UNL     1     146.504 161.997 167.610  0.00  0.00    +0.000 C 
BRANCH  24  25
ATOM     25  C7  UNL     1     145.860 160.865 168.354  0.00  0.00    +0.000 C 
ATOM     26  N2  UNL     1     145.336 159.954 168.978  0.00  0.00    +0.000 NA
ENDBRANCH  24  25
ENDBRANCH   9  24
TORSDOF 3
ENDMDL
MODEL 5
REMARK VINA RESULT:      -6.3      4.508      7.073
REMARK  Name = ./3D_structures\o70_MMV1579785_3D.pdb
REMARK  3 active torsions:
REMARK  status: ('A' for Active; 'I' for Inactive)
REMARK    1  A    between atoms: N1_9  and  C6_10
REMARK    2  A    between atoms: C6_10  and  C7_11
REMARK    3  A    between atoms: C10_15  and  N3_16
REMARK                            x       y       z     vdW  Elec       q    Type
REMARK                         _______ _______ _______ _____ _____    ______ ____
ROOT
ATOM      1  F1  UNL     1     151.822 157.474 170.410  0.00  0.00    +0.000 F 
ATOM      2  C1  UNL     1     151.499 158.592 169.767  0.00  0.00    +0.000 A 
ATOM      3  C2  UNL     1     150.195 158.933 169.565  0.00  0.00    +0.000 A 
ATOM      4  C3  UNL     1     149.825 160.069 168.901  0.00  0.00    +0.000 A 
ATOM      5  O1  UNL     1     148.483 160.344 168.748  0.00  0.00    +0.000 OA
ATOM      6  C4  UNL     1     148.047 161.225 167.719  0.00  0.00    +0.000 C 
ATOM      7  C5  UNL     1     149.035 162.312 167.559  0.00  0.00    +0.000 C 
ATOM      8  O2  UNL     1     148.617 163.475 167.286  0.00  0.00    +0.000 OA
ATOM      9  N1  UNL     1     150.432 162.119 167.689  0.00  0.00    +0.000 N 
ATOM     10  C8  UNL     1     150.821 160.940 168.391  0.00  0.00    +0.000 A 
ATOM     11  C9  UNL     1     152.090 160.545 168.627  0.00  0.00    +0.000 A 
ATOM     12  C10 UNL     1     152.514 159.428 169.282  0.00  0.00    +0.000 A 
ENDROOT
BRANCH  12  13
ATOM     13  N3  UNL     1     153.878 159.151 169.432  0.00  0.00    +0.000 N 
ATOM     14  C11 UNL     1     154.752 159.368 170.501  0.00  0.00    +0.000 C 
ATOM     15  O3  UNL     1     154.541 159.862 171.656  0.00  0.00    +0.000 OA
ATOM     16  C12 UNL     1     156.108 158.892 170.095  0.00  0.00    +0.000 A 
ATOM     17  C13 UNL     1     157.295 158.944 170.870  0.00  0.00    +0.000 A 
ATOM     18  C14 UNL     1     158.423 158.427 170.167  0.00  0.00    +0.000 A 
ATOM     19  C15 UNL     1     158.361 157.943 168.929  0.00  0.00    +0.000 A 
ATOM     20  C16 UNL     1     157.175 157.901 168.185  0.00  0.00    +0.000 A 
ATOM     21  C17 UNL     1     156.066 158.416 168.883  0.00  0.00    +0.000 A 
ATOM     22  C18 UNL     1     154.680 158.551 168.405  0.00  0.00    +0.000 C 
ATOM     23  O4  UNL     1     154.337 158.174 167.260  0.00  0.00    +0.000 OA
ENDBRANCH  12  13
BRANCH   9  24
ATOM     24  C6  UNL     1     151.444 163.127 167.376  0.00  0.00    +0.000 C 
BRANCH  24  25
ATOM     25  C7  UNL     1     151.738 162.924 165.920  0.00  0.00    +0.000 C 
ATOM     26  N2  UNL     1     151.986 162.777 164.732  0.00  0.00    +0.000 NA
ENDBRANCH  24  25
ENDBRANCH   9  24
TORSDOF 3
ENDMDL
MODEL 6
REMARK VINA RESULT:      -6.3      3.185      6.769
REMARK  Name = ./3D_structures\o70_MMV1579785_3D.pdb
REMARK  3 active torsions:
REMARK  status: ('A' for Active; 'I' for Inactive)
REMARK    1  A    between atoms: N1_9  and  C6_10
REMARK    2  A    between atoms: C6_10  and  C7_11
REMARK    3  A    between atoms: C10_15  and  N3_16
REMARK                            x       y       z     vdW  Elec       q    Type
REMARK                         _______ _______ _______ _____ _____    ______ ____
ROOT
ATOM      1  F1  UNL     1     143.904 163.394 168.513  0.00  0.00    +0.000 F 
ATOM      2  C1  UNL     1     145.218 163.582 168.456  0.00  0.00    +0.000 A 
ATOM      3  C2  UNL     1     145.888 164.173 169.486  0.00  0.00    +0.000 A 
ATOM      4  C3  UNL     1     147.237 164.392 169.459  0.00  0.00    +0.000 A 
ATOM      5  O1  UNL     1     147.837 164.987 170.548  0.00  0.00    +0.000 OA
ATOM      6  C4  UNL     1     149.098 165.632 170.405  0.00  0.00    +0.000 C 
ATOM      7  C5  UNL     1     149.924 164.874 169.443  0.00  0.00    +0.000 C 
ATOM      8  O2  UNL     1     151.170 164.791 169.648  0.00  0.00    +0.000 OA
ATOM      9  N1  UNL     1     149.395 164.238 168.293  0.00  0.00    +0.000 N 
ATOM     10  C8  UNL     1     147.988 163.999 168.323  0.00  0.00    +0.000 A 
ATOM     11  C9  UNL     1     147.266 163.418 167.341  0.00  0.00    +0.000 A 
ATOM     12  C10 UNL     1     145.926 163.176 167.316  0.00  0.00    +0.000 A 
ENDROOT
BRANCH  12  13
ATOM     13  N3  UNL     1     145.320 162.573 166.207  0.00  0.00    +0.000 N 
ATOM     14  C11 UNL     1     144.915 161.255 165.979  0.00  0.00    +0.000 C 
ATOM     15  O3  UNL     1     144.965 160.232 166.735  0.00  0.00    +0.000 OA
ATOM     16  C12 UNL     1     144.345 161.178 164.602  0.00  0.00    +0.000 A 
ATOM     17  C13 UNL     1     143.835 160.022 163.955  0.00  0.00    +0.000 A 
ATOM     18  C14 UNL     1     143.390 160.296 162.628  0.00  0.00    +0.000 A 
ATOM     19  C15 UNL     1     143.442 161.502 162.068  0.00  0.00    +0.000 A 
ATOM     20  C16 UNL     1     143.948 162.629 162.728  0.00  0.00    +0.000 A 
ATOM     21  C17 UNL     1     144.389 162.351 164.037  0.00  0.00    +0.000 A 
ATOM     22  C18 UNL     1     144.997 163.281 165.002  0.00  0.00    +0.000 C 
ATOM     23  O4  UNL     1     145.171 164.493 164.732  0.00  0.00    +0.000 OA
ENDBRANCH  12  13
BRANCH   9  24
ATOM     24  C6  UNL     1     150.198 163.625 167.237  0.00  0.00    +0.000 C 
BRANCH  24  25
ATOM     25  C7  UNL     1     150.388 164.717 166.227  0.00  0.00    +0.000 C 
ATOM     26  N2  UNL     1     150.563 165.602 165.403  0.00  0.00    +0.000 NA
ENDBRANCH  24  25
ENDBRANCH   9  24
TORSDOF 3
ENDMDL
MODEL 7
REMARK VINA RESULT:      -6.3     10.943     13.503
REMARK  Name = ./3D_structures\o70_MMV1579785_3D.pdb
REMARK  3 active torsions:
REMARK  status: ('A' for Active; 'I' for Inactive)
REMARK    1  A    between atoms: N1_9  and  C6_10
REMARK    2  A    between atoms: C6_10  and  C7_11
REMARK    3  A    between atoms: C10_15  and  N3_16
REMARK                            x       y       z     vdW  Elec       q    Type
REMARK                         _______ _______ _______ _____ _____    ______ ____
ROOT
ATOM      1  F1  UNL     1     157.660 159.563 164.722  0.00  0.00    +0.000 F 
ATOM      2  C1  UNL     1     158.011 158.327 164.380  0.00  0.00    +0.000 A 
ATOM      3  C2  UNL     1     158.263 158.004 163.080  0.00  0.00    +0.000 A 
ATOM      4  C3  UNL     1     158.618 156.743 162.690  0.00  0.00    +0.000 A 
ATOM      5  O1  UNL     1     158.865 156.504 161.354  0.00  0.00    +0.000 OA
ATOM      6  C4  UNL     1     158.791 155.179 160.841  0.00  0.00    +0.000 C 
ATOM      7  C5  UNL     1     159.303 154.235 161.856  0.00  0.00    +0.000 C 
ATOM      8  O2  UNL     1     159.960 153.226 161.467  0.00  0.00    +0.000 OA
ATOM      9  N1  UNL     1     159.089 154.396 163.247  0.00  0.00    +0.000 N 
ATOM     10  C8  UNL     1     158.730 155.714 163.659  0.00  0.00    +0.000 A 
ATOM     11  C9  UNL     1     158.469 156.101 164.925  0.00  0.00    +0.000 A 
ATOM     12  C10 UNL     1     158.114 157.339 165.369  0.00  0.00    +0.000 A 
ENDROOT
BRANCH  12  13
ATOM     13  N3  UNL     1     157.861 157.576 166.725  0.00  0.00    +0.000 N 
ATOM     14  C11 UNL     1     158.668 158.108 167.736  0.00  0.00    +0.000 C 
ATOM     15  O3  UNL     1     159.862 158.549 167.696  0.00  0.00    +0.000 OA
ATOM     16  C12 UNL     1     157.881 158.110 169.004  0.00  0.00    +0.000 A 
ATOM     17  C13 UNL     1     158.324 158.544 170.280  0.00  0.00    +0.000 A 
ATOM     18  C14 UNL     1     157.323 158.385 171.284  0.00  0.00    +0.000 A 
ATOM     19  C15 UNL     1     156.110 157.892 171.043  0.00  0.00    +0.000 A 
ATOM     20  C16 UNL     1     155.696 157.472 169.773  0.00  0.00    +0.000 A 
ATOM     21  C17 UNL     1     156.689 157.629 168.788  0.00  0.00    +0.000 A 
ATOM     22  C18 UNL     1     156.613 157.271 167.361  0.00  0.00    +0.000 C 
ATOM     23  O4  UNL     1     155.575 156.778 166.860  0.00  0.00    +0.000 OA
ENDBRANCH  12  13
BRANCH   9  24
ATOM     24  C6  UNL     1     159.434 153.402 164.262  0.00  0.00    +0.000 C 
BRANCH  24  25
ATOM     25  C7  UNL     1     158.298 152.425 164.231  0.00  0.00    +0.000 C 
ATOM     26  N2  UNL     1     157.359 151.642 164.197  0.00  0.00    +0.000 NA
ENDBRANCH  24  25
ENDBRANCH   9  24
TORSDOF 3
ENDMDL
MODEL 8
REMARK VINA RESULT:      -6.3      3.168      6.938
REMARK  Name = ./3D_structures\o70_MMV1579785_3D.pdb
REMARK  3 active torsions:
REMARK  status: ('A' for Active; 'I' for Inactive)
REMARK    1  A    between atoms: N1_9  and  C6_10
REMARK    2  A    between atoms: C6_10  and  C7_11
REMARK    3  A    between atoms: C10_15  and  N3_16
REMARK                            x       y       z     vdW  Elec       q    Type
REMARK                         _______ _______ _______ _____ _____    ______ ____
ROOT
ATOM      1  F1  UNL     1     147.157 164.908 169.599  0.00  0.00    +0.000 F 
ATOM      2  C1  UNL     1     148.173 165.161 168.780  0.00  0.00    +0.000 A 
ATOM      3  C2  UNL     1     149.433 165.356 169.264  0.00  0.00    +0.000 A 
ATOM      4  C3  UNL     1     150.499 165.628 168.454  0.00  0.00    +0.000 A 
ATOM      5  O1  UNL     1     151.742 165.802 169.025  0.00  0.00    +0.000 OA
ATOM      6  C4  UNL     1     152.758 166.508 168.322  0.00  0.00    +0.000 C 
ATOM      7  C5  UNL     1     152.657 166.199 166.881  0.00  0.00    +0.000 C 
ATOM      8  O2  UNL     1     153.723 166.100 166.206  0.00  0.00    +0.000 OA
ATOM      9  N1  UNL     1     151.423 166.014 166.209  0.00  0.00    +0.000 N 
ATOM     10  C8  UNL     1     150.310 165.719 167.051  0.00  0.00    +0.000 A 
ATOM     11  C9  UNL     1     149.041 165.514 166.639  0.00  0.00    +0.000 A 
ATOM     12  C10 UNL     1     147.945 165.240 167.399  0.00  0.00    +0.000 A 
ENDROOT
BRANCH  12  13
ATOM     13  N3  UNL     1     146.684 165.066 166.815  0.00  0.00    +0.000 N 
ATOM     14  C11 UNL     1     145.728 165.993 166.391  0.00  0.00    +0.000 C 
ATOM     15  O3  UNL     1     145.750 167.267 166.397  0.00  0.00    +0.000 OA
ATOM     16  C12 UNL     1     144.554 165.238 165.861  0.00  0.00    +0.000 A 
ATOM     17  C13 UNL     1     143.350 165.787 165.348  0.00  0.00    +0.000 A 
ATOM     18  C14 UNL     1     142.423 164.779 164.949  0.00  0.00    +0.000 A 
ATOM     19  C15 UNL     1     142.668 163.474 165.042  0.00  0.00    +0.000 A 
ATOM     20  C16 UNL     1     143.866 162.957 165.551  0.00  0.00    +0.000 A 
ATOM     21  C17 UNL     1     144.776 163.957 165.946  0.00  0.00    +0.000 A 
ATOM     22  C18 UNL     1     146.110 163.780 166.543  0.00  0.00    +0.000 C 
ATOM     23  O4  UNL     1     146.596 162.644 166.749  0.00  0.00    +0.000 OA
ENDBRANCH  12  13
BRANCH   9  24
ATOM     24  C6  UNL     1     151.277 165.873 164.761  0.00  0.00    +0.000 C 
BRANCH  24  25
ATOM     25  C7  UNL     1     151.727 164.472 164.473  0.00  0.00    +0.000 C 
ATOM     26  N2  UNL     1     152.108 163.337 164.224  0.00  0.00    +0.000 NA
ENDBRANCH  24  25
ENDBRANCH   9  24
TORSDOF 3
ENDMDL
MODEL 9
REMARK VINA RESULT:      -6.3      7.152     10.367
REMARK  Name = ./3D_structures\o70_MMV1579785_3D.pdb
REMARK  3 active torsions:
REMARK  status: ('A' for Active; 'I' for Inactive)
REMARK    1  A    between atoms: N1_9  and  C6_10
REMARK    2  A    between atoms: C6_10  and  C7_11
REMARK    3  A    between atoms: C10_15  and  N3_16
REMARK                            x       y       z     vdW  Elec       q    Type
REMARK                         _______ _______ _______ _____ _____    ______ ____
ROOT
ATOM      1  F1  UNL     1     158.361 158.181 171.108  0.00  0.00    +0.000 F 
ATOM      2  C1  UNL     1     157.142 158.712 171.085  0.00  0.00    +0.000 A 
ATOM      3  C2  UNL     1     156.576 159.219 172.216  0.00  0.00    +0.000 A 
ATOM      4  C3  UNL     1     155.322 159.763 172.232  0.00  0.00    +0.000 A 
ATOM      5  O1  UNL     1     154.828 160.263 173.418  0.00  0.00    +0.000 OA
ATOM      6  C4  UNL     1     153.425 160.416 173.599  0.00  0.00    +0.000 C 
ATOM      7  C5  UNL     1     152.813 160.837 172.322  0.00  0.00    +0.000 C 
ATOM      8  O2  UNL     1     151.846 161.653 172.353  0.00  0.00    +0.000 OA
ATOM      9  N1  UNL     1     153.250 160.369 171.058  0.00  0.00    +0.000 N 
ATOM     10  C8  UNL     1     154.562 159.809 171.036  0.00  0.00    +0.000 A 
ATOM     11  C9  UNL     1     155.181 159.293 169.953  0.00  0.00    +0.000 A 
ATOM     12  C10 UNL     1     156.425 158.741 169.881  0.00  0.00    +0.000 A 
ENDROOT
BRANCH  12  13
ATOM     13  N3  UNL     1     156.921 158.233 168.675  0.00  0.00    +0.000 N 
ATOM     14  C11 UNL     1     158.128 158.455 168.006  0.00  0.00    +0.000 C 
ATOM     15  O3  UNL     1     159.131 159.172 168.325  0.00  0.00    +0.000 OA
ATOM     16  C12 UNL     1     158.111 157.660 166.743  0.00  0.00    +0.000 A 
ATOM     17  C13 UNL     1     159.128 157.611 165.754  0.00  0.00    +0.000 A 
ATOM     18  C14 UNL     1     158.777 156.769 164.658  0.00  0.00    +0.000 A 
ATOM     19  C15 UNL     1     157.629 156.100 164.581  0.00  0.00    +0.000 A 
ATOM     20  C16 UNL     1     156.641 156.164 165.571  0.00  0.00    +0.000 A 
ATOM     21  C17 UNL     1     156.992 156.999 166.649  0.00  0.00    +0.000 A 
ATOM     22  C18 UNL     1     156.192 157.319 167.843  0.00  0.00    +0.000 C 
ATOM     23  O4  UNL     1     155.055 156.825 168.027  0.00  0.00    +0.000 OA
ENDBRANCH  12  13
BRANCH   9  24
ATOM     24  C6  UNL     1     152.567 160.631 169.792  0.00  0.00    +0.000 C 
BRANCH  24  25
ATOM     25  C7  UNL     1     151.491 159.588 169.722  0.00  0.00    +0.000 C 
ATOM     26  N2  UNL     1     150.629 158.723 169.672  0.00  0.00    +0.000 NA
ENDBRANCH  24  25
ENDBRANCH   9  24
TORSDOF 3
ENDMDL
