MODEL 1
REMARK VINA RESULT:      -4.9      0.000      0.000
REMARK  Name = ./3D_structures\o72_MMV1578898_3D.pdb
REMARK  4 active torsions:
REMARK  status: ('A' for Active; 'I' for Inactive)
REMARK    1  A    between atoms: C1_1  and  C2_2
REMARK    2  A    between atoms: C2_2  and  O1_3
REMARK    3  A    between atoms: O1_3  and  C3_4
REMARK    4  A    between atoms: N2_9  and  C8_12
REMARK                            x       y       z     vdW  Elec       q    Type
REMARK                         _______ _______ _______ _____ _____    ______ ____
ROOT
ATOM      1  C3  UNL     1     147.417 165.793 166.762  0.00  0.00    +0.000 C 
ATOM      2  O2  UNL     1     147.459 166.782 165.991  0.00  0.00    +0.000 OA
ATOM      3  N1  UNL     1     148.536 164.928 166.830  0.00  0.00    +0.000 N 
ATOM      4  C4  UNL     1     149.700 165.181 166.028  0.00  0.00    +0.000 C 
ATOM      5  C5  UNL     1     150.865 164.294 166.373  0.00  0.00    +0.000 C 
ATOM      6  N2  UNL     1     150.509 162.970 166.776  0.00  0.00    +0.000 N 
ATOM      7  C6  UNL     1     149.212 162.613 167.286  0.00  0.00    +0.000 C 
ATOM      8  C7  UNL     1     148.430 163.797 167.743  0.00  0.00    +0.000 C 
ENDROOT
BRANCH   6   9
ATOM      9  C8  UNL     1     151.495 161.923 166.672  0.00  0.00    +0.000 A 
ATOM     10  C9  UNL     1     151.978 161.263 167.783  0.00  0.00    +0.000 A 
ATOM     11  C10 UNL     1     152.936 160.250 167.686  0.00  0.00    +0.000 A 
ATOM     12  C11 UNL     1     153.424 159.883 166.459  0.00  0.00    +0.000 A 
ATOM     13 CL1  UNL     1     154.625 158.610 166.353  0.00  0.00    +0.000 Cl
ATOM     14  C12 UNL     1     152.956 160.527 165.342  0.00  0.00    +0.000 A 
ATOM     15  C13 UNL     1     152.007 161.528 165.451  0.00  0.00    +0.000 A 
ENDBRANCH   6   9
BRANCH   1  16
ATOM     16  O1  UNL     1     146.266 165.615 167.501  0.00  0.00    +0.000 OA
BRANCH  16  18
ATOM     17  C1  UNL     1     144.666 163.896 167.734  0.00  0.00    +0.000 C 
ATOM     18  C2  UNL     1     145.117 165.071 166.898  0.00  0.00    +0.000 C 
ENDBRANCH  16  18
ENDBRANCH   1  16
TORSDOF 3
ENDMDL
MODEL 2
REMARK VINA RESULT:      -4.8      7.476      8.468
REMARK  Name = ./3D_structures\o72_MMV1578898_3D.pdb
REMARK  4 active torsions:
REMARK  status: ('A' for Active; 'I' for Inactive)
REMARK    1  A    between atoms: C1_1  and  C2_2
REMARK    2  A    between atoms: C2_2  and  O1_3
REMARK    3  A    between atoms: O1_3  and  C3_4
REMARK    4  A    between atoms: N2_9  and  C8_12
REMARK                            x       y       z     vdW  Elec       q    Type
REMARK                         _______ _______ _______ _____ _____    ______ ____
ROOT
ATOM      1  C3  UNL     1     154.626 160.242 172.820  0.00  0.00    +0.000 C 
ATOM      2  O2  UNL     1     155.392 160.213 173.812  0.00  0.00    +0.000 OA
ATOM      3  N1  UNL     1     154.928 159.436 171.694  0.00  0.00    +0.000 N 
ATOM      4  C4  UNL     1     156.096 158.600 171.693  0.00  0.00    +0.000 C 
ATOM      5  C5  UNL     1     156.155 157.663 170.518  0.00  0.00    +0.000 C 
ATOM      6  N2  UNL     1     155.612 158.190 169.305  0.00  0.00    +0.000 N 
ATOM      7  C6  UNL     1     154.667 159.274 169.260  0.00  0.00    +0.000 C 
ATOM      8  C7  UNL     1     154.002 159.511 170.572  0.00  0.00    +0.000 C 
ENDROOT
BRANCH   6   9
ATOM      9  C8  UNL     1     156.024 157.612 168.050  0.00  0.00    +0.000 A 
ATOM     10  C9  UNL     1     155.244 157.702 166.915  0.00  0.00    +0.000 A 
ATOM     11  C10 UNL     1     155.639 157.140 165.698  0.00  0.00    +0.000 A 
ATOM     12  C11 UNL     1     156.834 156.476 165.605  0.00  0.00    +0.000 A 
ATOM     13 CL1  UNL     1     157.316 155.776 164.071  0.00  0.00    +0.000 Cl
ATOM     14  C12 UNL     1     157.624 156.375 166.722  0.00  0.00    +0.000 A 
ATOM     15  C13 UNL     1     157.221 156.936 167.922  0.00  0.00    +0.000 A 
ENDBRANCH   6   9
BRANCH   1  16
ATOM     16  O1  UNL     1     153.524 161.068 172.894  0.00  0.00    +0.000 OA
BRANCH  16  18
ATOM     17  C1  UNL     1     151.549 159.891 173.428  0.00  0.00    +0.000 C 
ATOM     18  C2  UNL     1     152.574 160.887 173.917  0.00  0.00    +0.000 C 
ENDBRANCH  16  18
ENDBRANCH   1  16
TORSDOF 3
ENDMDL
MODEL 3
REMARK VINA RESULT:      -4.7     10.046     11.765
REMARK  Name = ./3D_structures\o72_MMV1578898_3D.pdb
REMARK  4 active torsions:
REMARK  status: ('A' for Active; 'I' for Inactive)
REMARK    1  A    between atoms: C1_1  and  C2_2
REMARK    2  A    between atoms: C2_2  and  O1_3
REMARK    3  A    between atoms: O1_3  and  C3_4
REMARK    4  A    between atoms: N2_9  and  C8_12
REMARK                            x       y       z     vdW  Elec       q    Type
REMARK                         _______ _______ _______ _____ _____    ______ ____
ROOT
ATOM      1  C3  UNL     1     158.740 155.597 163.403  0.00  0.00    +0.000 C 
ATOM      2  O2  UNL     1     159.944 155.458 163.082  0.00  0.00    +0.000 OA
ATOM      3  N1  UNL     1     158.423 156.268 164.610  0.00  0.00    +0.000 N 
ATOM      4  C4  UNL     1     159.469 156.780 165.452  0.00  0.00    +0.000 C 
ATOM      5  C5  UNL     1     158.959 157.638 166.577  0.00  0.00    +0.000 C 
ATOM      6  N2  UNL     1     157.698 157.233 167.114  0.00  0.00    +0.000 N 
ATOM      7  C6  UNL     1     156.749 156.424 166.397  0.00  0.00    +0.000 C 
ATOM      8  C7  UNL     1     157.008 156.401 164.930  0.00  0.00    +0.000 C 
ENDROOT
BRANCH   6   9
ATOM      9  C8  UNL     1     157.343 157.653 168.447  0.00  0.00    +0.000 A 
ATOM     10  C9  UNL     1     158.268 158.206 169.308  0.00  0.00    +0.000 A 
ATOM     11  C10 UNL     1     157.928 158.611 170.602  0.00  0.00    +0.000 A 
ATOM     12  C11 UNL     1     156.641 158.465 171.050  0.00  0.00    +0.000 A 
ATOM     13 CL1  UNL     1     156.229 158.978 172.675  0.00  0.00    +0.000 Cl
ATOM     14  C12 UNL     1     155.706 157.916 170.209  0.00  0.00    +0.000 A 
ATOM     15  C13 UNL     1     156.056 157.519 168.930  0.00  0.00    +0.000 A 
ENDBRANCH   6   9
BRANCH   1  16
ATOM     16  O1  UNL     1     157.792 155.080 162.545  0.00  0.00    +0.000 OA
BRANCH  16  18
ATOM     17  C1  UNL     1     157.507 152.941 163.500  0.00  0.00    +0.000 C 
ATOM     18  C2  UNL     1     157.797 153.708 162.231  0.00  0.00    +0.000 C 
ENDBRANCH  16  18
ENDBRANCH   1  16
TORSDOF 3
ENDMDL
MODEL 4
REMARK VINA RESULT:      -4.7      3.173      4.079
REMARK  Name = ./3D_structures\o72_MMV1578898_3D.pdb
REMARK  4 active torsions:
REMARK  status: ('A' for Active; 'I' for Inactive)
REMARK    1  A    between atoms: C1_1  and  C2_2
REMARK    2  A    between atoms: C2_2  and  O1_3
REMARK    3  A    between atoms: O1_3  and  C3_4
REMARK    4  A    between atoms: N2_9  and  C8_12
REMARK                            x       y       z     vdW  Elec       q    Type
REMARK                         _______ _______ _______ _____ _____    ______ ____
ROOT
ATOM      1  C3  UNL     1     145.874 163.383 168.798  0.00  0.00    +0.000 C 
ATOM      2  O2  UNL     1     145.870 162.648 169.815  0.00  0.00    +0.000 OA
ATOM      3  N1  UNL     1     147.086 163.567 168.088  0.00  0.00    +0.000 N 
ATOM      4  C4  UNL     1     148.291 162.920 168.529  0.00  0.00    +0.000 C 
ATOM      5  C5  UNL     1     149.428 163.053 167.553  0.00  0.00    +0.000 C 
ATOM      6  N2  UNL     1     149.462 164.292 166.840  0.00  0.00    +0.000 N 
ATOM      7  C6  UNL     1     148.315 165.141 166.662  0.00  0.00    +0.000 C 
ATOM      8  C7  UNL     1     147.030 164.430 166.916  0.00  0.00    +0.000 C 
ENDROOT
BRANCH   6   9
ATOM      9  C8  UNL     1     150.709 164.725 166.260  0.00  0.00    +0.000 A 
ATOM     10  C9  UNL     1     150.756 165.656 165.243  0.00  0.00    +0.000 A 
ATOM     11  C10 UNL     1     151.962 166.077 164.677  0.00  0.00    +0.000 A 
ATOM     12  C11 UNL     1     153.148 165.563 165.130  0.00  0.00    +0.000 A 
ATOM     13 CL1  UNL     1     154.654 166.099 164.410  0.00  0.00    +0.000 Cl
ATOM     14  C12 UNL     1     153.124 164.635 166.141  0.00  0.00    +0.000 A 
ATOM     15  C13 UNL     1     151.922 164.227 166.694  0.00  0.00    +0.000 A 
ENDBRANCH   6   9
BRANCH   1  16
ATOM     16  O1  UNL     1     144.680 163.969 168.436  0.00  0.00    +0.000 OA
BRANCH  16  18
ATOM     17  C1  UNL     1     143.427 163.968 166.436  0.00  0.00    +0.000 C 
ATOM     18  C2  UNL     1     143.719 163.230 167.721  0.00  0.00    +0.000 C 
ENDBRANCH  16  18
ENDBRANCH   1  16
TORSDOF 3
ENDMDL
MODEL 5
REMARK VINA RESULT:      -4.6      2.246      2.886
REMARK  Name = ./3D_structures\o72_MMV1578898_3D.pdb
REMARK  4 active torsions:
REMARK  status: ('A' for Active; 'I' for Inactive)
REMARK    1  A    between atoms: C1_1  and  C2_2
REMARK    2  A    between atoms: C2_2  and  O1_3
REMARK    3  A    between atoms: O1_3  and  C3_4
REMARK    4  A    between atoms: N2_9  and  C8_12
REMARK                            x       y       z     vdW  Elec       q    Type
REMARK                         _______ _______ _______ _____ _____    ______ ____
ROOT
ATOM      1  C3  UNL     1     148.943 164.506 169.877  0.00  0.00    +0.000 C 
ATOM      2  O2  UNL     1     149.216 165.087 170.955  0.00  0.00    +0.000 OA
ATOM      3  N1  UNL     1     149.740 163.409 169.467  0.00  0.00    +0.000 N 
ATOM      4  C4  UNL     1     150.844 162.971 170.274  0.00  0.00    +0.000 C 
ATOM      5  C5  UNL     1     151.450 161.678 169.803  0.00  0.00    +0.000 C 
ATOM      6  N2  UNL     1     151.444 161.497 168.385  0.00  0.00    +0.000 N 
ATOM      7  C6  UNL     1     150.547 162.187 167.497  0.00  0.00    +0.000 C 
ATOM      8  C7  UNL     1     149.375 162.773 168.207  0.00  0.00    +0.000 C 
ENDROOT
BRANCH   6   9
ATOM      9  C8  UNL     1     152.381 160.572 167.798  0.00  0.00    +0.000 A 
ATOM     10  C9  UNL     1     152.959 159.555 168.530  0.00  0.00    +0.000 A 
ATOM     11  C10 UNL     1     153.870 158.659 167.965  0.00  0.00    +0.000 A 
ATOM     12  C11 UNL     1     154.215 158.774 166.644  0.00  0.00    +0.000 A 
ATOM     13 CL1  UNL     1     155.360 157.642 165.948  0.00  0.00    +0.000 Cl
ATOM     14  C12 UNL     1     153.652 159.779 165.898  0.00  0.00    +0.000 A 
ATOM     15  C13 UNL     1     152.751 160.660 166.470  0.00  0.00    +0.000 A 
ENDBRANCH   6   9
BRANCH   1  16
ATOM     16  O1  UNL     1     147.868 164.981 169.156  0.00  0.00    +0.000 OA
BRANCH  16  18
ATOM     17  C1  UNL     1     146.128 163.580 169.917  0.00  0.00    +0.000 C 
ATOM     18  C2  UNL     1     146.585 165.008 169.735  0.00  0.00    +0.000 C 
ENDBRANCH  16  18
ENDBRANCH   1  16
TORSDOF 3
ENDMDL
MODEL 6
REMARK VINA RESULT:      -4.6      9.347     11.198
REMARK  Name = ./3D_structures\o72_MMV1578898_3D.pdb
REMARK  4 active torsions:
REMARK  status: ('A' for Active; 'I' for Inactive)
REMARK    1  A    between atoms: C1_1  and  C2_2
REMARK    2  A    between atoms: C2_2  and  O1_3
REMARK    3  A    between atoms: O1_3  and  C3_4
REMARK    4  A    between atoms: N2_9  and  C8_12
REMARK                            x       y       z     vdW  Elec       q    Type
REMARK                         _______ _______ _______ _____ _____    ______ ____
ROOT
ATOM      1  C3  UNL     1     158.447 156.672 164.237  0.00  0.00    +0.000 C 
ATOM      2  O2  UNL     1     159.520 157.087 163.737  0.00  0.00    +0.000 OA
ATOM      3  N1  UNL     1     157.971 157.266 165.432  0.00  0.00    +0.000 N 
ATOM      4  C4  UNL     1     158.709 158.326 166.060  0.00  0.00    +0.000 C 
ATOM      5  C5  UNL     1     157.965 158.978 167.193  0.00  0.00    +0.000 C 
ATOM      6  N2  UNL     1     157.137 158.094 167.951  0.00  0.00    +0.000 N 
ATOM      7  C6  UNL     1     156.642 156.839 167.451  0.00  0.00    +0.000 C 
ATOM      8  C7  UNL     1     156.720 156.743 165.965  0.00  0.00    +0.000 C 
ENDROOT
BRANCH   6   9
ATOM      9  C8  UNL     1     156.765 158.468 169.293  0.00  0.00    +0.000 A 
ATOM     10  C9  UNL     1     155.471 158.814 169.622  0.00  0.00    +0.000 A 
ATOM     11  C10 UNL     1     155.108 159.180 170.921  0.00  0.00    +0.000 A 
ATOM     12  C11 UNL     1     156.051 159.203 171.915  0.00  0.00    +0.000 A 
ATOM     13 CL1  UNL     1     155.582 159.665 173.541  0.00  0.00    +0.000 Cl
ATOM     14  C12 UNL     1     157.344 158.863 171.608  0.00  0.00    +0.000 A 
ATOM     15  C13 UNL     1     157.690 158.502 170.318  0.00  0.00    +0.000 A 
ENDBRANCH   6   9
BRANCH   1  16
ATOM     16  O1  UNL     1     157.795 155.652 163.578  0.00  0.00    +0.000 OA
BRANCH  16  18
ATOM     17  C1  UNL     1     158.772 153.760 164.597  0.00  0.00    +0.000 C 
ATOM     18  C2  UNL     1     158.471 154.452 163.288  0.00  0.00    +0.000 C 
ENDBRANCH  16  18
ENDBRANCH   1  16
TORSDOF 3
ENDMDL
MODEL 7
REMARK VINA RESULT:      -4.4      9.180     11.684
REMARK  Name = ./3D_structures\o72_MMV1578898_3D.pdb
REMARK  4 active torsions:
REMARK  status: ('A' for Active; 'I' for Inactive)
REMARK    1  A    between atoms: C1_1  and  C2_2
REMARK    2  A    between atoms: C2_2  and  O1_3
REMARK    3  A    between atoms: O1_3  and  C3_4
REMARK    4  A    between atoms: N2_9  and  C8_12
REMARK                            x       y       z     vdW  Elec       q    Type
REMARK                         _______ _______ _______ _____ _____    ______ ____
ROOT
ATOM      1  C3  UNL     1     156.333 157.344 166.757  0.00  0.00    +0.000 C 
ATOM      2  O2  UNL     1     155.930 156.399 166.036  0.00  0.00    +0.000 OA
ATOM      3  N1  UNL     1     157.706 157.689 166.733  0.00  0.00    +0.000 N 
ATOM      4  C4  UNL     1     158.622 156.966 165.896  0.00  0.00    +0.000 C 
ATOM      5  C5  UNL     1     159.990 157.589 165.834  0.00  0.00    +0.000 C 
ATOM      6  N2  UNL     1     160.419 158.211 167.047  0.00  0.00    +0.000 N 
ATOM      7  C6  UNL     1     159.518 158.658 168.076  0.00  0.00    +0.000 C 
ATOM      8  C7  UNL     1     158.115 158.794 167.590  0.00  0.00    +0.000 C 
ENDROOT
BRANCH   6   9
ATOM      9  C8  UNL     1     161.830 158.412 167.264  0.00  0.00    +0.000 A 
ATOM     10  C9  UNL     1     162.413 159.658 167.172  0.00  0.00    +0.000 A 
ATOM     11  C10 UNL     1     163.781 159.855 167.380  0.00  0.00    +0.000 A 
ATOM     12  C11 UNL     1     164.588 158.792 167.686  0.00  0.00    +0.000 A 
ATOM     13 CL1  UNL     1     166.302 159.053 167.944  0.00  0.00    +0.000 Cl
ATOM     14  C12 UNL     1     164.027 157.542 167.782  0.00  0.00    +0.000 A 
ATOM     15  C13 UNL     1     162.671 157.361 167.575  0.00  0.00    +0.000 A 
ENDBRANCH   6   9
BRANCH   1  16
ATOM     16  O1  UNL     1     155.395 157.991 167.533  0.00  0.00    +0.000 OA
BRANCH  16  18
ATOM     17  C1  UNL     1     155.591 157.305 169.783  0.00  0.00    +0.000 C 
ATOM     18  C2  UNL     1     154.717 157.294 168.551  0.00  0.00    +0.000 C 
ENDBRANCH  16  18
ENDBRANCH   1  16
TORSDOF 3
ENDMDL
MODEL 8
REMARK VINA RESULT:      -4.4     10.140     12.066
REMARK  Name = ./3D_structures\o72_MMV1578898_3D.pdb
REMARK  4 active torsions:
REMARK  status: ('A' for Active; 'I' for Inactive)
REMARK    1  A    between atoms: C1_1  and  C2_2
REMARK    2  A    between atoms: C2_2  and  O1_3
REMARK    3  A    between atoms: O1_3  and  C3_4
REMARK    4  A    between atoms: N2_9  and  C8_12
REMARK                            x       y       z     vdW  Elec       q    Type
REMARK                         _______ _______ _______ _____ _____    ______ ____
ROOT
ATOM      1  C3  UNL     1     158.911 156.480 163.082  0.00  0.00    +0.000 C 
ATOM      2  O2  UNL     1     158.040 156.212 162.220  0.00  0.00    +0.000 OA
ATOM      3  N1  UNL     1     158.524 156.580 164.442  0.00  0.00    +0.000 N 
ATOM      4  C4  UNL     1     157.155 156.377 164.824  0.00  0.00    +0.000 C 
ATOM      5  C5  UNL     1     156.956 156.314 166.313  0.00  0.00    +0.000 C 
ATOM      6  N2  UNL     1     157.825 157.161 167.069  0.00  0.00    +0.000 N 
ATOM      7  C6  UNL     1     159.080 157.660 166.574  0.00  0.00    +0.000 C 
ATOM      8  C7  UNL     1     159.579 156.893 165.397  0.00  0.00    +0.000 C 
ENDROOT
BRANCH   6   9
ATOM      9  C8  UNL     1     157.435 157.544 168.403  0.00  0.00    +0.000 A 
ATOM     10  C9  UNL     1     156.198 157.223 168.922  0.00  0.00    +0.000 A 
ATOM     11  C10 UNL     1     155.816 157.595 170.214  0.00  0.00    +0.000 A 
ATOM     12  C11 UNL     1     156.682 158.299 171.009  0.00  0.00    +0.000 A 
ATOM     13 CL1  UNL     1     156.189 158.759 172.628  0.00  0.00    +0.000 Cl
ATOM     14  C12 UNL     1     157.918 158.628 170.511  0.00  0.00    +0.000 A 
ATOM     15  C13 UNL     1     158.283 158.254 169.230  0.00  0.00    +0.000 A 
ENDBRANCH   6   9
BRANCH   1  16
ATOM     16  O1  UNL     1     160.204 156.661 162.640  0.00  0.00    +0.000 OA
BRANCH  16  18
ATOM     17  C1  UNL     1     161.172 154.526 162.916  0.00  0.00    +0.000 C 
ATOM     18  C2  UNL     1     160.860 155.633 161.937  0.00  0.00    +0.000 C 
ENDBRANCH  16  18
ENDBRANCH   1  16
TORSDOF 3
ENDMDL
MODEL 9
REMARK VINA RESULT:      -4.4     26.873     28.222
REMARK  Name = ./3D_structures\o72_MMV1578898_3D.pdb
REMARK  4 active torsions:
REMARK  status: ('A' for Active; 'I' for Inactive)
REMARK    1  A    between atoms: C1_1  and  C2_2
REMARK    2  A    between atoms: C2_2  and  O1_3
REMARK    3  A    between atoms: O1_3  and  C3_4
REMARK    4  A    between atoms: N2_9  and  C8_12
REMARK                            x       y       z     vdW  Elec       q    Type
REMARK                         _______ _______ _______ _____ _____    ______ ____
ROOT
ATOM      1  C3  UNL     1     167.332 142.521 168.413  0.00  0.00    +0.000 C 
ATOM      2  O2  UNL     1     166.515 142.552 169.365  0.00  0.00    +0.000 OA
ATOM      3  N1  UNL     1     166.875 142.136 167.128  0.00  0.00    +0.000 N 
ATOM      4  C4  UNL     1     165.497 141.787 166.922  0.00  0.00    +0.000 C 
ATOM      5  C5  UNL     1     165.141 141.606 165.472  0.00  0.00    +0.000 C 
ATOM      6  N2  UNL     1     166.182 141.050 164.665  0.00  0.00    +0.000 N 
ATOM      7  C6  UNL     1     167.575 141.097 165.018  0.00  0.00    +0.000 C 
ATOM      8  C7  UNL     1     167.868 142.120 166.062  0.00  0.00    +0.000 C 
ENDROOT
BRANCH   6   9
ATOM      9  C8  UNL     1     165.830 140.405 163.424  0.00  0.00    +0.000 A 
ATOM     10  C9  UNL     1     166.779 140.081 162.476  0.00  0.00    +0.000 A 
ATOM     11  C10 UNL     1     166.441 139.458 161.271  0.00  0.00    +0.000 A 
ATOM     12  C11 UNL     1     165.134 139.151 161.002  0.00  0.00    +0.000 A 
ATOM     13 CL1  UNL     1     164.725 138.370 159.486  0.00  0.00    +0.000 Cl
ATOM     14  C12 UNL     1     164.175 139.465 161.932  0.00  0.00    +0.000 A 
ATOM     15  C13 UNL     1     164.522 140.081 163.121  0.00  0.00    +0.000 A 
ENDBRANCH   6   9
BRANCH   1  16
ATOM     16  O1  UNL     1     168.637 142.870 168.688  0.00  0.00    +0.000 OA
BRANCH  16  18
ATOM     17  C1  UNL     1     169.525 140.821 169.450  0.00  0.00    +0.000 C 
ATOM     18  C2  UNL     1     169.313 142.281 169.773  0.00  0.00    +0.000 C 
ENDBRANCH  16  18
ENDBRANCH   1  16
TORSDOF 3
ENDMDL
