MODEL 1
REMARK VINA RESULT:      -5.6      0.000      0.000
REMARK  Name = ./3D_structures\o74_MMV1578559_3D.pdb
REMARK  10 active torsions:
REMARK  status: ('A' for Active; 'I' for Inactive)
REMARK    1  A    between atoms: C1_1  and  O1_2
REMARK    2  A    between atoms: O1_2  and  C2_3
REMARK    3  A    between atoms: C2_3  and  N1_4
REMARK    4  A    between atoms: C3_5  and  C4_7
REMARK    5  A    between atoms: C4_7  and  C5_8
REMARK    6  A    between atoms: C11_16  and  C15_24
REMARK    7  A    between atoms: C12_17  and  C14_21
REMARK    8  A    between atoms: C14_21  and  O5_23
REMARK    9  A    between atoms: C15_24  and  O6_25
REMARK   10  A    between atoms: O6_25  and  C16_26
REMARK                            x       y       z     vdW  Elec       q    Type
REMARK                         _______ _______ _______ _____ _____    ______ ____
ROOT
ATOM      1  C2  UNL     1     148.388 164.684 167.954  0.00  0.00    +0.000 C 
ATOM      2  C9  UNL     1     146.870 164.617 167.857  0.00  0.00    +0.000 C 
ATOM      3  S2  UNL     1     146.104 165.816 166.751  0.00  0.00    +0.000 S 
ATOM      4  C10 UNL     1     145.636 164.955 165.260  0.00  0.00    +0.000 C 
ATOM      5  C11 UNL     1     145.191 163.527 165.530  0.00  0.00    +0.000 C 
ATOM      6  C12 UNL     1     145.799 162.785 166.440  0.00  0.00    +0.000 C 
ATOM      7  N2  UNL     1     146.896 163.339 167.195  0.00  0.00    +0.000 N 
ATOM      8  C13 UNL     1     148.207 163.150 167.648  0.00  0.00    +0.000 C 
ATOM      9  O3  UNL     1     149.066 162.263 167.824  0.00  0.00    +0.000 OA
ENDROOT
BRANCH   1  10
ATOM     10  N1  UNL     1     149.037 165.149 166.767  0.00  0.00    +0.000 N 
ATOM     11  C3  UNL     1     150.373 165.207 166.400  0.00  0.00    +0.000 C 
ATOM     12  O2  UNL     1     151.257 164.821 167.179  0.00  0.00    +0.000 OA
ATOM     13  H4  UNL     1     148.361 165.527 166.016  0.00  0.00    +0.000 HD
BRANCH  11  14
ATOM     14  C4  UNL     1     150.839 165.726 165.070  0.00  0.00    +0.000 C 
BRANCH  14  15
ATOM     15  C5  UNL     1     152.037 165.052 164.596  0.00  0.00    +0.000 A 
ATOM     16  C6  UNL     1     152.286 163.900 163.973  0.00  0.00    +0.000 A 
ATOM     17  C7  UNL     1     153.526 163.524 163.648  0.00  0.00    +0.000 A 
ATOM     18  C8  UNL     1     154.560 164.381 163.984  0.00  0.00    +0.000 A 
ATOM     19  S1  UNL     1     153.731 165.758 164.784  0.00  0.00    +0.000 S 
ENDBRANCH  14  15
ENDBRANCH  11  14
ENDBRANCH   1  10
BRANCH   1  21
ATOM     20  C1  UNL     1     148.160 165.272 170.224  0.00  0.00    +0.000 C 
ATOM     21  O1  UNL     1     148.879 164.800 169.191  0.00  0.00    +0.000 OA
ENDBRANCH   1  21
BRANCH   6  22
ATOM     22  C14 UNL     1     145.467 161.397 166.687  0.00  0.00    +0.000 C 
ATOM     23  O4  UNL     1     144.740 161.087 167.702  0.00  0.00    +0.000 OA
BRANCH  22  24
ATOM     24  O5  UNL     1     145.843 160.296 165.947  0.00  0.00    +0.000 OA
ATOM     25  H13 UNL     1     146.779 159.967 165.841  0.00  0.00    +0.000 HD
ENDBRANCH  22  24
ENDBRANCH   6  22
BRANCH   5  26
ATOM     26  C15 UNL     1     144.025 163.040 164.767  0.00  0.00    +0.000 C 
BRANCH  26  27
ATOM     27  O6  UNL     1     144.365 162.832 163.388  0.00  0.00    +0.000 OA
BRANCH  27  28
ATOM     28  C16 UNL     1     144.351 161.515 162.945  0.00  0.00    +0.000 C 
ATOM     29  O7  UNL     1     145.369 160.773 163.106  0.00  0.00    +0.000 OA
ATOM     30  N3  UNL     1     143.237 160.926 162.305  0.00  0.00    +0.000 N 
ATOM     31  H16 UNL     1     142.955 161.182 161.323  0.00  0.00    +0.000 HD
ATOM     32  H17 UNL     1     142.662 160.212 162.803  0.00  0.00    +0.000 HD
ENDBRANCH  27  28
ENDBRANCH  26  27
ENDBRANCH   5  26
TORSDOF 9
ENDMDL
MODEL 2
REMARK VINA RESULT:      -5.6      3.476      3.973
REMARK  Name = ./3D_structures\o74_MMV1578559_3D.pdb
REMARK  10 active torsions:
REMARK  status: ('A' for Active; 'I' for Inactive)
REMARK    1  A    between atoms: C1_1  and  O1_2
REMARK    2  A    between atoms: O1_2  and  C2_3
REMARK    3  A    between atoms: C2_3  and  N1_4
REMARK    4  A    between atoms: C3_5  and  C4_7
REMARK    5  A    between atoms: C4_7  and  C5_8
REMARK    6  A    between atoms: C11_16  and  C15_24
REMARK    7  A    between atoms: C12_17  and  C14_21
REMARK    8  A    between atoms: C14_21  and  O5_23
REMARK    9  A    between atoms: C15_24  and  O6_25
REMARK   10  A    between atoms: O6_25  and  C16_26
REMARK                            x       y       z     vdW  Elec       q    Type
REMARK                         _______ _______ _______ _____ _____    ______ ____
ROOT
ATOM      1  C2  UNL     1     150.953 163.258 168.730  0.00  0.00    +0.000 C 
ATOM      2  C9  UNL     1     150.059 164.477 168.912  0.00  0.00    +0.000 C 
ATOM      3  S2  UNL     1     150.038 165.643 167.539  0.00  0.00    +0.000 S 
ATOM      4  C10 UNL     1     148.510 165.403 166.648  0.00  0.00    +0.000 C 
ATOM      5  C11 UNL     1     147.356 165.031 167.566  0.00  0.00    +0.000 C 
ATOM      6  C12 UNL     1     147.540 164.223 168.597  0.00  0.00    +0.000 C 
ATOM      7  N2  UNL     1     148.854 163.691 168.861  0.00  0.00    +0.000 N 
ATOM      8  C13 UNL     1     149.609 162.546 169.138  0.00  0.00    +0.000 C 
ATOM      9  O3  UNL     1     149.497 161.369 169.537  0.00  0.00    +0.000 OA
ENDROOT
BRANCH   1  10
ATOM     10  N1  UNL     1     151.113 162.838 167.372  0.00  0.00    +0.000 N 
ATOM     11  C3  UNL     1     151.678 161.703 166.811  0.00  0.00    +0.000 C 
ATOM     12  O2  UNL     1     152.183 160.830 167.531  0.00  0.00    +0.000 OA
ATOM     13  H4  UNL     1     150.720 163.534 166.648  0.00  0.00    +0.000 HD
BRANCH  11  14
ATOM     14  C4  UNL     1     151.721 161.451 165.331  0.00  0.00    +0.000 C 
BRANCH  14  15
ATOM     15  C5  UNL     1     152.692 162.292 164.649  0.00  0.00    +0.000 A 
ATOM     16  C6  UNL     1     152.626 163.236 163.710  0.00  0.00    +0.000 A 
ATOM     17  C7  UNL     1     153.717 163.861 163.257  0.00  0.00    +0.000 A 
ATOM     18  C8  UNL     1     154.936 163.491 163.801  0.00  0.00    +0.000 A 
ATOM     19  S1  UNL     1     154.504 162.217 164.990  0.00  0.00    +0.000 S 
ENDBRANCH  14  15
ENDBRANCH  11  14
ENDBRANCH   1  10
BRANCH   1  21
ATOM     20  C1  UNL     1     152.014 163.895 170.735  0.00  0.00    +0.000 C 
ATOM     21  O1  UNL     1     151.841 163.047 169.707  0.00  0.00    +0.000 OA
ENDBRANCH   1  21
BRANCH   6  22
ATOM     22  C14 UNL     1     146.465 163.777 169.458  0.00  0.00    +0.000 C 
ATOM     23  O4  UNL     1     146.355 164.264 170.644  0.00  0.00    +0.000 OA
BRANCH  22  24
ATOM     24  O5  UNL     1     145.487 162.847 169.174  0.00  0.00    +0.000 OA
ATOM     25  H13 UNL     1     144.755 162.573 169.794  0.00  0.00    +0.000 HD
ENDBRANCH  22  24
ENDBRANCH   6  22
BRANCH   5  26
ATOM     26  C15 UNL     1     146.051 165.656 167.276  0.00  0.00    +0.000 C 
BRANCH  26  27
ATOM     27  O6  UNL     1     146.098 166.395 166.047  0.00  0.00    +0.000 OA
BRANCH  27  28
ATOM     28  C16 UNL     1     144.965 167.138 165.734  0.00  0.00    +0.000 C 
ATOM     29  O7  UNL     1     143.860 166.557 165.506  0.00  0.00    +0.000 OA
ATOM     30  N3  UNL     1     144.965 168.549 165.653  0.00  0.00    +0.000 N 
ATOM     31  H16 UNL     1     145.431 169.065 164.862  0.00  0.00    +0.000 HD
ATOM     32  H17 UNL     1     144.492 169.118 166.389  0.00  0.00    +0.000 HD
ENDBRANCH  27  28
ENDBRANCH  26  27
ENDBRANCH   5  26
TORSDOF 9
ENDMDL
MODEL 3
REMARK VINA RESULT:      -5.6      2.892      3.801
REMARK  Name = ./3D_structures\o74_MMV1578559_3D.pdb
REMARK  10 active torsions:
REMARK  status: ('A' for Active; 'I' for Inactive)
REMARK    1  A    between atoms: C1_1  and  O1_2
REMARK    2  A    between atoms: O1_2  and  C2_3
REMARK    3  A    between atoms: C2_3  and  N1_4
REMARK    4  A    between atoms: C3_5  and  C4_7
REMARK    5  A    between atoms: C4_7  and  C5_8
REMARK    6  A    between atoms: C11_16  and  C15_24
REMARK    7  A    between atoms: C12_17  and  C14_21
REMARK    8  A    between atoms: C14_21  and  O5_23
REMARK    9  A    between atoms: C15_24  and  O6_25
REMARK   10  A    between atoms: O6_25  and  C16_26
REMARK                            x       y       z     vdW  Elec       q    Type
REMARK                         _______ _______ _______ _____ _____    ______ ____
ROOT
ATOM      1  C2  UNL     1     150.324 162.277 167.984  0.00  0.00    +0.000 C 
ATOM      2  C9  UNL     1     149.363 163.255 168.648  0.00  0.00    +0.000 C 
ATOM      3  S2  UNL     1     149.690 165.000 168.344  0.00  0.00    +0.000 S 
ATOM      4  C10 UNL     1     148.498 165.574 167.147  0.00  0.00    +0.000 C 
ATOM      5  C11 UNL     1     147.145 164.899 167.307  0.00  0.00    +0.000 C 
ATOM      6  C12 UNL     1     147.057 163.617 167.618  0.00  0.00    +0.000 C 
ATOM      7  N2  UNL     1     148.261 162.847 167.818  0.00  0.00    +0.000 N 
ATOM      8  C13 UNL     1     148.951 161.671 167.505  0.00  0.00    +0.000 C 
ATOM      9  O3  UNL     1     148.780 160.524 167.044  0.00  0.00    +0.000 OA
ENDROOT
BRANCH   1  10
ATOM     10  N1  UNL     1     150.888 162.744 166.755  0.00  0.00    +0.000 N 
ATOM     11  C3  UNL     1     151.671 162.120 165.796  0.00  0.00    +0.000 C 
ATOM     12  O2  UNL     1     152.018 160.938 165.938  0.00  0.00    +0.000 OA
ATOM     13  H4  UNL     1     150.663 163.775 166.532  0.00  0.00    +0.000 HD
BRANCH  11  14
ATOM     14  C4  UNL     1     152.146 162.806 164.548  0.00  0.00    +0.000 C 
BRANCH  14  15
ATOM     15  C5  UNL     1     152.355 164.233 164.738  0.00  0.00    +0.000 A 
ATOM     16  C6  UNL     1     151.598 165.322 164.605  0.00  0.00    +0.000 A 
ATOM     17  C7  UNL     1     152.069 166.546 164.857  0.00  0.00    +0.000 A 
ATOM     18  C8  UNL     1     153.389 166.650 165.266  0.00  0.00    +0.000 A 
ATOM     19  S1  UNL     1     153.964 164.949 165.289  0.00  0.00    +0.000 S 
ENDBRANCH  14  15
ENDBRANCH  11  14
ENDBRANCH   1  10
BRANCH   1  21
ATOM     20  C1  UNL     1     150.856 161.499 170.143  0.00  0.00    +0.000 C 
ATOM     21  O1  UNL     1     150.899 161.393 168.804  0.00  0.00    +0.000 OA
ENDBRANCH   1  21
BRANCH   6  22
ATOM     22  C14 UNL     1     145.799 162.905 167.710  0.00  0.00    +0.000 C 
ATOM     23  O4  UNL     1     145.336 162.293 166.677  0.00  0.00    +0.000 OA
BRANCH  22  24
ATOM     24  O5  UNL     1     144.977 162.787 168.810  0.00  0.00    +0.000 OA
ATOM     25  H13 UNL     1     144.420 161.988 169.030  0.00  0.00    +0.000 HD
ENDBRANCH  22  24
ENDBRANCH   6  22
BRANCH   5  26
ATOM     26  C15 UNL     1     145.954 165.756 167.148  0.00  0.00    +0.000 C 
BRANCH  26  27
ATOM     27  O6  UNL     1     146.108 166.647 166.034  0.00  0.00    +0.000 OA
BRANCH  27  28
ATOM     28  C16 UNL     1     144.987 167.391 165.684  0.00  0.00    +0.000 C 
ATOM     29  O7  UNL     1     143.884 166.812 165.440  0.00  0.00    +0.000 OA
ATOM     30  N3  UNL     1     144.996 168.801 165.579  0.00  0.00    +0.000 N 
ATOM     31  H16 UNL     1     145.483 169.301 164.791  0.00  0.00    +0.000 HD
ATOM     32  H17 UNL     1     144.510 169.384 166.295  0.00  0.00    +0.000 HD
ENDBRANCH  27  28
ENDBRANCH  26  27
ENDBRANCH   5  26
TORSDOF 9
ENDMDL
MODEL 4
REMARK VINA RESULT:      -5.4     23.082     25.306
REMARK  Name = ./3D_structures\o74_MMV1578559_3D.pdb
REMARK  10 active torsions:
REMARK  status: ('A' for Active; 'I' for Inactive)
REMARK    1  A    between atoms: C1_1  and  O1_2
REMARK    2  A    between atoms: O1_2  and  C2_3
REMARK    3  A    between atoms: C2_3  and  N1_4
REMARK    4  A    between atoms: C3_5  and  C4_7
REMARK    5  A    between atoms: C4_7  and  C5_8
REMARK    6  A    between atoms: C11_16  and  C15_24
REMARK    7  A    between atoms: C12_17  and  C14_21
REMARK    8  A    between atoms: C14_21  and  O5_23
REMARK    9  A    between atoms: C15_24  and  O6_25
REMARK   10  A    between atoms: O6_25  and  C16_26
REMARK                            x       y       z     vdW  Elec       q    Type
REMARK                         _______ _______ _______ _____ _____    ______ ____
ROOT
ATOM      1  C2  UNL     1     163.423 141.898 167.833  0.00  0.00    +0.000 C 
ATOM      2  C9  UNL     1     163.301 143.313 168.380  0.00  0.00    +0.000 C 
ATOM      3  S2  UNL     1     162.212 144.416 167.461  0.00  0.00    +0.000 S 
ATOM      4  C10 UNL     1     160.694 144.572 168.385  0.00  0.00    +0.000 C 
ATOM      5  C11 UNL     1     160.925 144.538 169.888  0.00  0.00    +0.000 C 
ATOM      6  C12 UNL     1     161.826 143.730 170.420  0.00  0.00    +0.000 C 
ATOM      7  N2  UNL     1     162.611 142.874 169.564  0.00  0.00    +0.000 N 
ATOM      8  C13 UNL     1     163.079 141.576 169.336  0.00  0.00    +0.000 C 
ATOM      9  O3  UNL     1     163.248 140.479 169.905  0.00  0.00    +0.000 OA
ENDROOT
BRANCH   1  10
ATOM     10  N1  UNL     1     162.258 141.424 167.153  0.00  0.00    +0.000 N 
ATOM     11  C3  UNL     1     162.016 141.129 165.820  0.00  0.00    +0.000 C 
ATOM     12  O2  UNL     1     162.904 141.283 164.970  0.00  0.00    +0.000 OA
ATOM     13  H4  UNL     1     161.406 141.266 167.796  0.00  0.00    +0.000 HD
BRANCH  11  14
ATOM     14  C4  UNL     1     160.697 140.615 165.317  0.00  0.00    +0.000 C 
BRANCH  14  15
ATOM     15  C5  UNL     1     159.895 141.652 164.689  0.00  0.00    +0.000 A 
ATOM     16  C6  UNL     1     159.096 142.623 165.132  0.00  0.00    +0.000 A 
ATOM     17  C7  UNL     1     158.467 143.456 164.299  0.00  0.00    +0.000 A 
ATOM     18  C8  UNL     1     158.672 143.277 162.941  0.00  0.00    +0.000 A 
ATOM     19  S1  UNL     1     159.796 141.878 162.860  0.00  0.00    +0.000 S 
ENDBRANCH  14  15
ENDBRANCH  11  14
ENDBRANCH   1  10
BRANCH   1  21
ATOM     20  C1  UNL     1     165.632 142.279 167.107  0.00  0.00    +0.000 C 
ATOM     21  O1  UNL     1     164.670 141.479 167.599  0.00  0.00    +0.000 OA
ENDBRANCH   1  21
BRANCH   6  22
ATOM     22  C14 UNL     1     162.036 143.602 171.848  0.00  0.00    +0.000 C 
ATOM     23  O4  UNL     1     163.015 144.223 172.406  0.00  0.00    +0.000 OA
BRANCH  22  24
ATOM     24  O5  UNL     1     161.294 142.864 172.745  0.00  0.00    +0.000 OA
ATOM     25  H13 UNL     1     160.297 142.858 172.800  0.00  0.00    +0.000 HD
ENDBRANCH  22  24
ENDBRANCH   6  22
BRANCH   5  26
ATOM     26  C15 UNL     1     160.132 145.481 170.702  0.00  0.00    +0.000 C 
BRANCH  26  27
ATOM     27  O6  UNL     1     160.287 146.825 170.225  0.00  0.00    +0.000 OA
BRANCH  27  28
ATOM     28  C16 UNL     1     161.492 147.450 170.531  0.00  0.00    +0.000 C 
ATOM     29  O7  UNL     1     161.999 147.333 171.689  0.00  0.00    +0.000 OA
ATOM     30  N3  UNL     1     162.214 148.232 169.602  0.00  0.00    +0.000 N 
ATOM     31  H16 UNL     1     161.884 149.184 169.294  0.00  0.00    +0.000 HD
ATOM     32  H17 UNL     1     163.107 147.876 169.196  0.00  0.00    +0.000 HD
ENDBRANCH  27  28
ENDBRANCH  26  27
ENDBRANCH   5  26
TORSDOF 9
ENDMDL
MODEL 5
REMARK VINA RESULT:      -5.3      3.378      5.518
REMARK  Name = ./3D_structures\o74_MMV1578559_3D.pdb
REMARK  10 active torsions:
REMARK  status: ('A' for Active; 'I' for Inactive)
REMARK    1  A    between atoms: C1_1  and  O1_2
REMARK    2  A    between atoms: O1_2  and  C2_3
REMARK    3  A    between atoms: C2_3  and  N1_4
REMARK    4  A    between atoms: C3_5  and  C4_7
REMARK    5  A    between atoms: C4_7  and  C5_8
REMARK    6  A    between atoms: C11_16  and  C15_24
REMARK    7  A    between atoms: C12_17  and  C14_21
REMARK    8  A    between atoms: C14_21  and  O5_23
REMARK    9  A    between atoms: C15_24  and  O6_25
REMARK   10  A    between atoms: O6_25  and  C16_26
REMARK                            x       y       z     vdW  Elec       q    Type
REMARK                         _______ _______ _______ _____ _____    ______ ____
ROOT
ATOM      1  C2  UNL     1     151.157 163.911 166.709  0.00  0.00    +0.000 C 
ATOM      2  C9  UNL     1     149.739 163.432 166.989  0.00  0.00    +0.000 C 
ATOM      3  S2  UNL     1     149.365 163.064 168.713  0.00  0.00    +0.000 S 
ATOM      4  C10 UNL     1     148.393 164.415 169.357  0.00  0.00    +0.000 C 
ATOM      5  C11 UNL     1     147.460 165.008 168.312  0.00  0.00    +0.000 C 
ATOM      6  C12 UNL     1     147.845 165.141 167.054  0.00  0.00    +0.000 C 
ATOM      7  N2  UNL     1     149.165 164.710 166.662  0.00  0.00    +0.000 N 
ATOM      8  C13 UNL     1     150.341 165.047 165.984  0.00  0.00    +0.000 C 
ATOM      9  O3  UNL     1     150.795 165.847 165.141  0.00  0.00    +0.000 OA
ENDROOT
BRANCH   1  10
ATOM     10  N1  UNL     1     151.766 164.623 167.789  0.00  0.00    +0.000 N 
ATOM     11  C3  UNL     1     152.843 164.324 168.608  0.00  0.00    +0.000 C 
ATOM     12  O2  UNL     1     153.458 163.256 168.475  0.00  0.00    +0.000 OA
ATOM     13  H4  UNL     1     151.300 165.571 168.008  0.00  0.00    +0.000 HD
BRANCH  11  14
ATOM     14  C4  UNL     1     153.335 165.244 169.689  0.00  0.00    +0.000 C 
BRANCH  14  15
ATOM     15  C5  UNL     1     152.453 165.271 170.845  0.00  0.00    +0.000 A 
ATOM     16  C6  UNL     1     151.324 165.909 171.153  0.00  0.00    +0.000 A 
ATOM     17  C7  UNL     1     150.712 165.736 172.328  0.00  0.00    +0.000 A 
ATOM     18  C8  UNL     1     151.296 164.861 173.229  0.00  0.00    +0.000 A 
ATOM     19  S1  UNL     1     152.758 164.274 172.367  0.00  0.00    +0.000 S 
ENDBRANCH  14  15
ENDBRANCH  11  14
ENDBRANCH   1  10
BRANCH   1  21
ATOM     20  C1  UNL     1     151.766 161.883 165.675  0.00  0.00    +0.000 C 
ATOM     21  O1  UNL     1     151.820 163.222 165.774  0.00  0.00    +0.000 OA
ENDBRANCH   1  21
BRANCH   6  22
ATOM     22  C14 UNL     1     147.027 165.765 166.034  0.00  0.00    +0.000 C 
ATOM     23  O4  UNL     1     147.112 167.034 165.838  0.00  0.00    +0.000 OA
BRANCH  22  24
ATOM     24  O5  UNL     1     146.115 165.158 165.198  0.00  0.00    +0.000 OA
ATOM     25  H13 UNL     1     145.607 164.324 165.408  0.00  0.00    +0.000 HD
ENDBRANCH  22  24
ENDBRANCH   6  22
BRANCH   5  26
ATOM     26  C15 UNL     1     146.104 165.372 168.765  0.00  0.00    +0.000 C 
BRANCH  26  27
ATOM     27  O6  UNL     1     145.375 164.211 169.189  0.00  0.00    +0.000 OA
BRANCH  27  28
ATOM     28  C16 UNL     1     144.649 163.550 168.204  0.00  0.00    +0.000 C 
ATOM     29  O7  UNL     1     144.183 164.190 167.212  0.00  0.00    +0.000 OA
ATOM     30  N3  UNL     1     144.387 162.161 168.237  0.00  0.00    +0.000 N 
ATOM     31  H16 UNL     1     143.708 161.735 168.921  0.00  0.00    +0.000 HD
ATOM     32  H17 UNL     1     144.871 161.520 167.572  0.00  0.00    +0.000 HD
ENDBRANCH  27  28
ENDBRANCH  26  27
ENDBRANCH   5  26
TORSDOF 9
ENDMDL
MODEL 6
REMARK VINA RESULT:      -5.2      3.148      5.266
REMARK  Name = ./3D_structures\o74_MMV1578559_3D.pdb
REMARK  10 active torsions:
REMARK  status: ('A' for Active; 'I' for Inactive)
REMARK    1  A    between atoms: C1_1  and  O1_2
REMARK    2  A    between atoms: O1_2  and  C2_3
REMARK    3  A    between atoms: C2_3  and  N1_4
REMARK    4  A    between atoms: C3_5  and  C4_7
REMARK    5  A    between atoms: C4_7  and  C5_8
REMARK    6  A    between atoms: C11_16  and  C15_24
REMARK    7  A    between atoms: C12_17  and  C14_21
REMARK    8  A    between atoms: C14_21  and  O5_23
REMARK    9  A    between atoms: C15_24  and  O6_25
REMARK   10  A    between atoms: O6_25  and  C16_26
REMARK                            x       y       z     vdW  Elec       q    Type
REMARK                         _______ _______ _______ _____ _____    ______ ____
ROOT
ATOM      1  C2  UNL     1     149.707 165.660 167.117  0.00  0.00    +0.000 C 
ATOM      2  C9  UNL     1     149.220 164.220 167.020  0.00  0.00    +0.000 C 
ATOM      3  S2  UNL     1     149.462 163.211 168.493  0.00  0.00    +0.000 S 
ATOM      4  C10 UNL     1     147.883 163.057 169.309  0.00  0.00    +0.000 C 
ATOM      5  C11 UNL     1     146.725 162.998 168.325  0.00  0.00    +0.000 C 
ATOM      6  C12 UNL     1     146.723 163.741 167.232  0.00  0.00    +0.000 C 
ATOM      7  N2  UNL     1     147.838 164.616 166.961  0.00  0.00    +0.000 N 
ATOM      8  C13 UNL     1     148.239 165.908 166.604  0.00  0.00    +0.000 C 
ATOM      9  O3  UNL     1     147.812 166.964 166.096  0.00  0.00    +0.000 OA
ENDROOT
BRANCH   1  10
ATOM     10  N1  UNL     1     149.660 166.213 168.436  0.00  0.00    +0.000 N 
ATOM     11  C3  UNL     1     150.649 166.467 169.373  0.00  0.00    +0.000 C 
ATOM     12  O2  UNL     1     151.832 166.187 169.131  0.00  0.00    +0.000 OA
ATOM     13  H4  UNL     1     148.668 166.483 168.763  0.00  0.00    +0.000 HD
BRANCH  11  14
ATOM     14  C4  UNL     1     150.373 167.084 170.714  0.00  0.00    +0.000 C 
BRANCH  14  15
ATOM     15  C5  UNL     1     150.349 168.537 170.667  0.00  0.00    +0.000 A 
ATOM     16  C6  UNL     1     149.950 169.499 171.499  0.00  0.00    +0.000 A 
ATOM     17  C7  UNL     1     150.050 170.794 171.183  0.00  0.00    +0.000 A 
ATOM     18  C8  UNL     1     150.589 171.108 169.946  0.00  0.00    +0.000 A 
ATOM     19  S1  UNL     1     150.960 169.508 169.222  0.00  0.00    +0.000 S 
ENDBRANCH  14  15
ENDBRANCH  11  14
ENDBRANCH   1  10
BRANCH   1  21
ATOM     20  C1  UNL     1     150.974 165.225 165.179  0.00  0.00    +0.000 C 
ATOM     21  O1  UNL     1     150.549 166.046 166.154  0.00  0.00    +0.000 OA
ENDBRANCH   1  21
BRANCH   6  22
ATOM     22  C14 UNL     1     145.615 163.780 166.299  0.00  0.00    +0.000 C 
ATOM     23  O4  UNL     1     144.723 164.701 166.408  0.00  0.00    +0.000 OA
BRANCH  22  24
ATOM     24  O5  UNL     1     145.365 162.919 165.252  0.00  0.00    +0.000 OA
ATOM     25  H13 UNL     1     144.533 162.381 165.136  0.00  0.00    +0.000 HD
ENDBRANCH  22  24
ENDBRANCH   6  22
BRANCH   5  26
ATOM     26  C15 UNL     1     145.645 162.039 168.630  0.00  0.00    +0.000 C 
BRANCH  26  27
ATOM     27  O6  UNL     1     146.123 160.688 168.558  0.00  0.00    +0.000 OA
BRANCH  27  28
ATOM     28  C16 UNL     1     146.569 160.261 167.312  0.00  0.00    +0.000 C 
ATOM     29  O7  UNL     1     145.760 160.173 166.337  0.00  0.00    +0.000 OA
ATOM     30  N3  UNL     1     147.912 159.906 167.051  0.00  0.00    +0.000 N 
ATOM     31  H16 UNL     1     148.340 159.020 167.427  0.00  0.00    +0.000 HD
ATOM     32  H17 UNL     1     148.516 160.527 166.470  0.00  0.00    +0.000 HD
ENDBRANCH  27  28
ENDBRANCH  26  27
ENDBRANCH   5  26
TORSDOF 9
ENDMDL
MODEL 7
REMARK VINA RESULT:      -5.2      2.351      2.880
REMARK  Name = ./3D_structures\o74_MMV1578559_3D.pdb
REMARK  10 active torsions:
REMARK  status: ('A' for Active; 'I' for Inactive)
REMARK    1  A    between atoms: C1_1  and  O1_2
REMARK    2  A    between atoms: O1_2  and  C2_3
REMARK    3  A    between atoms: C2_3  and  N1_4
REMARK    4  A    between atoms: C3_5  and  C4_7
REMARK    5  A    between atoms: C4_7  and  C5_8
REMARK    6  A    between atoms: C11_16  and  C15_24
REMARK    7  A    between atoms: C12_17  and  C14_21
REMARK    8  A    between atoms: C14_21  and  O5_23
REMARK    9  A    between atoms: C15_24  and  O6_25
REMARK   10  A    between atoms: O6_25  and  C16_26
REMARK                            x       y       z     vdW  Elec       q    Type
REMARK                         _______ _______ _______ _____ _____    ______ ____
ROOT
ATOM      1  C2  UNL     1     150.292 163.146 167.791  0.00  0.00    +0.000 C 
ATOM      2  C9  UNL     1     149.039 163.680 168.472  0.00  0.00    +0.000 C 
ATOM      3  S2  UNL     1     148.656 165.412 168.158  0.00  0.00    +0.000 S 
ATOM      4  C10 UNL     1     147.314 165.466 166.983  0.00  0.00    +0.000 C 
ATOM      5  C11 UNL     1     146.332 164.319 167.172  0.00  0.00    +0.000 C 
ATOM      6  C12 UNL     1     146.755 163.107 167.488  0.00  0.00    +0.000 C 
ATOM      7  N2  UNL     1     148.167 162.867 167.666  0.00  0.00    +0.000 N 
ATOM      8  C13 UNL     1     149.255 162.049 167.342  0.00  0.00    +0.000 C 
ATOM      9  O3  UNL     1     149.535 160.922 166.887  0.00  0.00    +0.000 OA
ENDROOT
BRANCH   1  10
ATOM     10  N1  UNL     1     150.609 163.783 166.550  0.00  0.00    +0.000 N 
ATOM     11  C3  UNL     1     151.626 164.650 166.184  0.00  0.00    +0.000 C 
ATOM     12  O2  UNL     1     152.468 165.020 167.016  0.00  0.00    +0.000 OA
ATOM     13  H4  UNL     1     149.928 163.545 165.748  0.00  0.00    +0.000 HD
BRANCH  11  14
ATOM     14  C4  UNL     1     151.785 165.192 164.793  0.00  0.00    +0.000 C 
BRANCH  14  15
ATOM     15  C5  UNL     1     153.077 164.869 164.210  0.00  0.00    +0.000 A 
ATOM     16  C6  UNL     1     153.542 163.889 163.434  0.00  0.00    +0.000 A 
ATOM     17  C7  UNL     1     154.817 163.845 163.039  0.00  0.00    +0.000 A 
ATOM     18  C8  UNL     1     155.653 164.863 163.466  0.00  0.00    +0.000 A 
ATOM     19  S1  UNL     1     154.581 165.908 164.458  0.00  0.00    +0.000 S 
ENDBRANCH  14  15
ENDBRANCH  11  14
ENDBRANCH   1  10
BRANCH   1  21
ATOM     20  C1  UNL     1     151.464 163.025 169.832  0.00  0.00    +0.000 C 
ATOM     21  O1  UNL     1     151.180 162.563 168.602  0.00  0.00    +0.000 OA
ENDBRANCH   1  21
BRANCH   6  22
ATOM     22  C14 UNL     1     145.875 161.963 167.607  0.00  0.00    +0.000 C 
ATOM     23  O4  UNL     1     145.760 161.143 166.623  0.00  0.00    +0.000 OA
BRANCH  22  24
ATOM     24  O5  UNL     1     145.094 161.611 168.687  0.00  0.00    +0.000 OA
ATOM     25  H13 UNL     1     145.197 161.968 169.613  0.00  0.00    +0.000 HD
ENDBRANCH  22  24
ENDBRANCH   6  22
BRANCH   5  26
ATOM     26  C15 UNL     1     144.900 164.644 167.035  0.00  0.00    +0.000 C 
BRANCH  26  27
ATOM     27  O6  UNL     1     144.586 165.023 165.687  0.00  0.00    +0.000 OA
BRANCH  27  28
ATOM     28  C16 UNL     1     143.812 166.169 165.537  0.00  0.00    +0.000 C 
ATOM     29  O7  UNL     1     144.364 167.309 165.450  0.00  0.00    +0.000 OA
ATOM     30  N3  UNL     1     142.401 166.145 165.469  0.00  0.00    +0.000 N 
ATOM     31  H16 UNL     1     141.803 165.942 166.312  0.00  0.00    +0.000 HD
ATOM     32  H17 UNL     1     141.915 166.334 164.565  0.00  0.00    +0.000 HD
ENDBRANCH  27  28
ENDBRANCH  26  27
ENDBRANCH   5  26
TORSDOF 9
ENDMDL
MODEL 8
REMARK VINA RESULT:      -5.2      2.877      3.787
REMARK  Name = ./3D_structures\o74_MMV1578559_3D.pdb
REMARK  10 active torsions:
REMARK  status: ('A' for Active; 'I' for Inactive)
REMARK    1  A    between atoms: C1_1  and  O1_2
REMARK    2  A    between atoms: O1_2  and  C2_3
REMARK    3  A    between atoms: C2_3  and  N1_4
REMARK    4  A    between atoms: C3_5  and  C4_7
REMARK    5  A    between atoms: C4_7  and  C5_8
REMARK    6  A    between atoms: C11_16  and  C15_24
REMARK    7  A    between atoms: C12_17  and  C14_21
REMARK    8  A    between atoms: C14_21  and  O5_23
REMARK    9  A    between atoms: C15_24  and  O6_25
REMARK   10  A    between atoms: O6_25  and  C16_26
REMARK                            x       y       z     vdW  Elec       q    Type
REMARK                         _______ _______ _______ _____ _____    ______ ____
ROOT
ATOM      1  C2  UNL     1     150.968 164.497 168.504  0.00  0.00    +0.000 C 
ATOM      2  C9  UNL     1     149.742 165.394 168.407  0.00  0.00    +0.000 C 
ATOM      3  S2  UNL     1     149.227 165.838 166.738  0.00  0.00    +0.000 S 
ATOM      4  C10 UNL     1     147.795 164.853 166.335  0.00  0.00    +0.000 C 
ATOM      5  C11 UNL     1     146.906 164.599 167.542  0.00  0.00    +0.000 C 
ATOM      6  C12 UNL     1     147.429 164.369 168.735  0.00  0.00    +0.000 C 
ATOM      7  N2  UNL     1     148.862 164.367 168.898  0.00  0.00    +0.000 N 
ATOM      8  C13 UNL     1     149.970 163.685 169.412  0.00  0.00    +0.000 C 
ATOM      9  O3  UNL     1     150.284 162.795 170.228  0.00  0.00    +0.000 OA
ENDROOT
BRANCH   1  10
ATOM     10  N1  UNL     1     151.145 163.614 167.392  0.00  0.00    +0.000 N 
ATOM     11  C3  UNL     1     151.984 162.529 167.192  0.00  0.00    +0.000 C 
ATOM     12  O2  UNL     1     152.784 162.181 168.072  0.00  0.00    +0.000 OA
ATOM     13  H4  UNL     1     150.505 163.832 166.552  0.00  0.00    +0.000 HD
BRANCH  11  14
ATOM     14  C4  UNL     1     151.990 161.715 165.930  0.00  0.00    +0.000 C 
BRANCH  14  15
ATOM     15  C5  UNL     1     153.241 161.003 165.729  0.00  0.00    +0.000 A 
ATOM     16  C6  UNL     1     153.654 159.750 165.922  0.00  0.00    +0.000 A 
ATOM     17  C7  UNL     1     154.901 159.364 165.638  0.00  0.00    +0.000 A 
ATOM     18  C8  UNL     1     155.765 160.320 165.131  0.00  0.00    +0.000 A 
ATOM     19  S1  UNL     1     154.761 161.808 165.060  0.00  0.00    +0.000 S 
ENDBRANCH  14  15
ENDBRANCH  11  14
ENDBRANCH   1  10
BRANCH   1  21
ATOM     20  C1  UNL     1     151.953 166.187 169.818  0.00  0.00    +0.000 C 
ATOM     21  O1  UNL     1     151.954 164.954 169.283  0.00  0.00    +0.000 OA
ENDBRANCH   1  21
BRANCH   6  22
ATOM     22  C14 UNL     1     146.634 164.049 169.903  0.00  0.00    +0.000 C 
ATOM     23  O4  UNL     1     146.262 162.834 170.106  0.00  0.00    +0.000 OA
BRANCH  22  24
ATOM     24  O5  UNL     1     146.191 164.912 170.883  0.00  0.00    +0.000 OA
ATOM     25  H13 UNL     1     145.347 165.443 170.843  0.00  0.00    +0.000 HD
ENDBRANCH  22  24
ENDBRANCH   6  22
BRANCH   5  26
ATOM     26  C15 UNL     1     145.449 164.675 167.320  0.00  0.00    +0.000 C 
BRANCH  26  27
ATOM     27  O6  UNL     1     145.025 163.694 166.363  0.00  0.00    +0.000 OA
BRANCH  27  28
ATOM     28  C16 UNL     1     144.959 162.381 166.817  0.00  0.00    +0.000 C 
ATOM     29  O7  UNL     1     145.543 161.452 166.178  0.00  0.00    +0.000 OA
ATOM     30  N3  UNL     1     144.262 162.001 167.986  0.00  0.00    +0.000 N 
ATOM     31  H16 UNL     1     143.210 161.992 168.033  0.00  0.00    +0.000 HD
ATOM     32  H17 UNL     1     144.787 161.717 168.842  0.00  0.00    +0.000 HD
ENDBRANCH  27  28
ENDBRANCH  26  27
ENDBRANCH   5  26
TORSDOF 9
ENDMDL
MODEL 9
REMARK VINA RESULT:      -5.2      7.999     10.335
REMARK  Name = ./3D_structures\o74_MMV1578559_3D.pdb
REMARK  10 active torsions:
REMARK  status: ('A' for Active; 'I' for Inactive)
REMARK    1  A    between atoms: C1_1  and  O1_2
REMARK    2  A    between atoms: O1_2  and  C2_3
REMARK    3  A    between atoms: C2_3  and  N1_4
REMARK    4  A    between atoms: C3_5  and  C4_7
REMARK    5  A    between atoms: C4_7  and  C5_8
REMARK    6  A    between atoms: C11_16  and  C15_24
REMARK    7  A    between atoms: C12_17  and  C14_21
REMARK    8  A    between atoms: C14_21  and  O5_23
REMARK    9  A    between atoms: C15_24  and  O6_25
REMARK   10  A    between atoms: O6_25  and  C16_26
REMARK                            x       y       z     vdW  Elec       q    Type
REMARK                         _______ _______ _______ _____ _____    ______ ____
ROOT
ATOM      1  C2  UNL     1     146.240 157.117 170.834  0.00  0.00    +0.000 C 
ATOM      2  C9  UNL     1     146.287 155.656 171.261  0.00  0.00    +0.000 C 
ATOM      3  S2  UNL     1     145.207 154.540 170.346  0.00  0.00    +0.000 S 
ATOM      4  C10 UNL     1     146.224 153.616 169.208  0.00  0.00    +0.000 C 
ATOM      5  C11 UNL     1     147.602 153.314 169.775  0.00  0.00    +0.000 C 
ATOM      6  C12 UNL     1     148.247 154.207 170.507  0.00  0.00    +0.000 C 
ATOM      7  N2  UNL     1     147.632 155.483 170.781  0.00  0.00    +0.000 N 
ATOM      8  C13 UNL     1     147.795 156.873 170.786  0.00  0.00    +0.000 C 
ATOM      9  O3  UNL     1     148.674 157.759 170.765  0.00  0.00    +0.000 OA
ENDROOT
BRANCH   1  10
ATOM     10  N1  UNL     1     145.928 157.321 169.453  0.00  0.00    +0.000 N 
ATOM     11  C3  UNL     1     145.965 158.450 168.649  0.00  0.00    +0.000 C 
ATOM     12  O2  UNL     1     146.306 159.546 169.118  0.00  0.00    +0.000 OA
ATOM     13  H4  UNL     1     145.601 156.430 168.940  0.00  0.00    +0.000 HD
BRANCH  11  14
ATOM     14  C4  UNL     1     145.608 158.433 167.191  0.00  0.00    +0.000 C 
BRANCH  14  15
ATOM     15  C5  UNL     1     145.645 157.096 166.620  0.00  0.00    +0.000 A 
ATOM     16  C6  UNL     1     146.610 156.229 166.314  0.00  0.00    +0.000 A 
ATOM     17  C7  UNL     1     146.344 155.033 165.783  0.00  0.00    +0.000 A 
ATOM     18  C8  UNL     1     145.015 154.716 165.558  0.00  0.00    +0.000 A 
ATOM     19  S1  UNL     1     144.128 156.172 166.122  0.00  0.00    +0.000 S 
ENDBRANCH  14  15
ENDBRANCH  11  14
ENDBRANCH   1  10
BRANCH   1  21
ATOM     20  C1  UNL     1     145.195 157.717 172.858  0.00  0.00    +0.000 C 
ATOM     21  O1  UNL     1     145.993 157.993 171.813  0.00  0.00    +0.000 OA
ENDBRANCH   1  21
BRANCH   6  22
ATOM     22  C14 UNL     1     149.590 154.003 171.009  0.00  0.00    +0.000 C 
ATOM     23  O4  UNL     1     149.763 153.615 172.224  0.00  0.00    +0.000 OA
BRANCH  22  24
ATOM     24  O5  UNL     1     150.778 154.180 170.333  0.00  0.00    +0.000 OA
ATOM     25  H13 UNL     1     150.870 154.596 169.430  0.00  0.00    +0.000 HD
ENDBRANCH  22  24
ENDBRANCH   6  22
BRANCH   5  26
ATOM     26  C15 UNL     1     148.149 151.970 169.508  0.00  0.00    +0.000 C 
BRANCH  26  27
ATOM     27  O6  UNL     1     148.096 151.663 168.107  0.00  0.00    +0.000 OA
BRANCH  27  28
ATOM     28  C16 UNL     1     149.318 151.444 167.481  0.00  0.00    +0.000 C 
ATOM     29  O7  UNL     1     149.385 150.719 166.441  0.00  0.00    +0.000 OA
ATOM     30  N3  UNL     1     150.534 151.997 167.943  0.00  0.00    +0.000 N 
ATOM     31  H16 UNL     1     151.007 151.656 168.821  0.00  0.00    +0.000 HD
ATOM     32  H17 UNL     1     150.996 152.767 167.413  0.00  0.00    +0.000 HD
ENDBRANCH  27  28
ENDBRANCH  26  27
ENDBRANCH   5  26
TORSDOF 9
ENDMDL
