MODEL 1
REMARK VINA RESULT:      -6.3      0.000      0.000
REMARK  Name = ./3D_structures\o76_MMV1578578_3D.pdb
REMARK  2 active torsions:
REMARK  status: ('A' for Active; 'I' for Inactive)
REMARK    1  A    between atoms: C4_5  and  C7_8
REMARK    2  A    between atoms: C9_13  and  C10_16
REMARK                            x       y       z     vdW  Elec       q    Type
REMARK                         _______ _______ _______ _____ _____    ______ ____
ROOT
ATOM      1  C7  UNL     1     161.754 142.028 166.930  0.00  0.00    +0.000 C 
ATOM      2  O1  UNL     1     162.829 142.295 166.301  0.00  0.00    +0.000 OA
ATOM      3  N1  UNL     1     160.994 140.958 166.401  0.00  0.00    +0.000 N 
ATOM      4  C8  UNL     1     161.387 140.222 165.252  0.00  0.00    +0.000 A 
ATOM      5  O2  UNL     1     162.435 140.352 164.497  0.00  0.00    +0.000 OA
ATOM      6  C9  UNL     1     162.414 139.451 163.523  0.00  0.00    +0.000 A 
ATOM      7  N2  UNL     1     161.298 138.716 163.669  0.00  0.00    +0.000 NA
ATOM      8  N3  UNL     1     160.683 139.205 164.736  0.00  0.00    +0.000 NA
ATOM      9  H5  UNL     1     160.106 140.721 166.900  0.00  0.00    +0.000 HD
ENDROOT
BRANCH   1  14
ATOM     10  F1  UNL     1     160.304 144.951 171.502  0.00  0.00    +0.000 F 
ATOM     11  C1  UNL     1     160.683 144.224 170.404  0.00  0.00    +0.000 A 
ATOM     12  C2  UNL     1     159.938 144.388 169.258  0.00  0.00    +0.000 A 
ATOM     13  C3  UNL     1     160.302 143.663 168.134  0.00  0.00    +0.000 A 
ATOM     14  C4  UNL     1     161.365 142.793 168.105  0.00  0.00    +0.000 A 
ATOM     15  C5  UNL     1     162.093 142.656 169.286  0.00  0.00    +0.000 A 
ATOM     16  C6  UNL     1     161.762 143.363 170.433  0.00  0.00    +0.000 A 
ENDBRANCH   1  14
BRANCH   6  17
ATOM     17  C10 UNL     1     163.436 139.308 162.490  0.00  0.00    +0.000 A 
ATOM     18  C11 UNL     1     163.155 138.742 161.286  0.00  0.00    +0.000 A 
ATOM     19  C12 UNL     1     164.118 138.603 160.303  0.00  0.00    +0.000 A 
ATOM     20  C13 UNL     1     165.399 139.039 160.525  0.00  0.00    +0.000 A 
ATOM     21  C14 UNL     1     165.701 139.620 161.753  0.00  0.00    +0.000 A 
ATOM     22  C15 UNL     1     164.713 139.749 162.729  0.00  0.00    +0.000 A 
ENDBRANCH   6  17
TORSDOF 2
ENDMDL
MODEL 2
REMARK VINA RESULT:      -6.3     14.713     17.182
REMARK  Name = ./3D_structures\o76_MMV1578578_3D.pdb
REMARK  2 active torsions:
REMARK  status: ('A' for Active; 'I' for Inactive)
REMARK    1  A    between atoms: C4_5  and  C7_8
REMARK    2  A    between atoms: C9_13  and  C10_16
REMARK                            x       y       z     vdW  Elec       q    Type
REMARK                         _______ _______ _______ _____ _____    ______ ____
ROOT
ATOM      1  C7  UNL     1     157.279 158.377 169.432  0.00  0.00    +0.000 C 
ATOM      2  O1  UNL     1     158.464 157.968 169.205  0.00  0.00    +0.000 OA
ATOM      3  N1  UNL     1     156.311 157.988 168.475  0.00  0.00    +0.000 N 
ATOM      4  C8  UNL     1     156.621 157.198 167.337  0.00  0.00    +0.000 A 
ATOM      5  O2  UNL     1     157.756 156.700 166.951  0.00  0.00    +0.000 OA
ATOM      6  C9  UNL     1     157.600 156.020 165.822  0.00  0.00    +0.000 A 
ATOM      7  N2  UNL     1     156.303 156.092 165.477  0.00  0.00    +0.000 NA
ATOM      8  N3  UNL     1     155.720 156.819 166.420  0.00  0.00    +0.000 NA
ATOM      9  H5  UNL     1     155.331 158.312 168.640  0.00  0.00    +0.000 HD
ENDROOT
BRANCH   1  14
ATOM     10  F1  UNL     1     156.153 161.554 173.925  0.00  0.00    +0.000 F 
ATOM     11  C1  UNL     1     156.443 160.806 172.816  0.00  0.00    +0.000 A 
ATOM     12  C2  UNL     1     155.988 159.506 172.800  0.00  0.00    +0.000 A 
ATOM     13  C3  UNL     1     156.270 158.729 171.688  0.00  0.00    +0.000 A 
ATOM     14  C4  UNL     1     156.978 159.187 170.603  0.00  0.00    +0.000 A 
ATOM     15  C5  UNL     1     157.421 160.508 170.658  0.00  0.00    +0.000 A 
ATOM     16  C6  UNL     1     157.160 161.320 171.752  0.00  0.00    +0.000 A 
ENDBRANCH   1  14
BRANCH   6  17
ATOM     17  C10 UNL     1     158.667 155.327 165.106  0.00  0.00    +0.000 A 
ATOM     18  C11 UNL     1     159.804 155.969 164.731  0.00  0.00    +0.000 A 
ATOM     19  C12 UNL     1     160.819 155.319 164.051  0.00  0.00    +0.000 A 
ATOM     20  C13 UNL     1     160.698 153.990 163.736  0.00  0.00    +0.000 A 
ATOM     21  C14 UNL     1     159.537 153.320 164.113  0.00  0.00    +0.000 A 
ATOM     22  C15 UNL     1     158.528 153.997 164.797  0.00  0.00    +0.000 A 
ENDBRANCH   6  17
TORSDOF 2
ENDMDL
MODEL 3
REMARK VINA RESULT:      -6.3     16.454     19.948
REMARK  Name = ./3D_structures\o76_MMV1578578_3D.pdb
REMARK  2 active torsions:
REMARK  status: ('A' for Active; 'I' for Inactive)
REMARK    1  A    between atoms: C4_5  and  C7_8
REMARK    2  A    between atoms: C9_13  and  C10_16
REMARK                            x       y       z     vdW  Elec       q    Type
REMARK                         _______ _______ _______ _____ _____    ______ ____
ROOT
ATOM      1  C7  UNL     1     157.143 157.688 166.779  0.00  0.00    +0.000 C 
ATOM      2  O1  UNL     1     156.000 158.175 167.062  0.00  0.00    +0.000 OA
ATOM      3  N1  UNL     1     158.048 157.602 167.863  0.00  0.00    +0.000 N 
ATOM      4  C8  UNL     1     157.723 158.022 169.179  0.00  0.00    +0.000 A 
ATOM      5  O2  UNL     1     156.625 158.534 169.644  0.00  0.00    +0.000 OA
ATOM      6  C9  UNL     1     156.747 158.785 170.941  0.00  0.00    +0.000 A 
ATOM      7  N2  UNL     1     157.983 158.414 171.315  0.00  0.00    +0.000 NA
ATOM      8  N3  UNL     1     158.566 157.948 170.219  0.00  0.00    +0.000 NA
ATOM      9  H5  UNL     1     158.993 157.206 167.654  0.00  0.00    +0.000 HD
ENDROOT
BRANCH   1  14
ATOM     10  F1  UNL     1     158.350 155.980 161.566  0.00  0.00    +0.000 F 
ATOM     11  C1  UNL     1     158.047 156.365 162.845  0.00  0.00    +0.000 A 
ATOM     12  C2  UNL     1     158.227 157.694 163.157  0.00  0.00    +0.000 A 
ATOM     13  C3  UNL     1     157.926 158.107 164.446  0.00  0.00    +0.000 A 
ATOM     14  C4  UNL     1     157.460 157.262 165.423  0.00  0.00    +0.000 A 
ATOM     15  C5  UNL     1     157.292 155.925 165.067  0.00  0.00    +0.000 A 
ATOM     16  C6  UNL     1     157.580 155.470 163.788  0.00  0.00    +0.000 A 
ENDBRANCH   1  14
BRANCH   6  17
ATOM     17  C10 UNL     1     155.705 159.362 171.786  0.00  0.00    +0.000 A 
ATOM     18  C11 UNL     1     155.911 159.591 173.110  0.00  0.00    +0.000 A 
ATOM     19  C12 UNL     1     154.928 160.137 173.917  0.00  0.00    +0.000 A 
ATOM     20  C13 UNL     1     153.705 160.464 173.390  0.00  0.00    +0.000 A 
ATOM     21  C14 UNL     1     153.481 160.234 172.036  0.00  0.00    +0.000 A 
ATOM     22  C15 UNL     1     154.486 159.682 171.242  0.00  0.00    +0.000 A 
ENDBRANCH   6  17
TORSDOF 2
ENDMDL
MODEL 4
REMARK VINA RESULT:      -6.2     13.684     17.413
REMARK  Name = ./3D_structures\o76_MMV1578578_3D.pdb
REMARK  2 active torsions:
REMARK  status: ('A' for Active; 'I' for Inactive)
REMARK    1  A    between atoms: C4_5  and  C7_8
REMARK    2  A    between atoms: C9_13  and  C10_16
REMARK                            x       y       z     vdW  Elec       q    Type
REMARK                         _______ _______ _______ _____ _____    ______ ____
ROOT
ATOM      1  C7  UNL     1     158.025 154.929 164.185  0.00  0.00    +0.000 C 
ATOM      2  O1  UNL     1     158.823 155.041 165.171  0.00  0.00    +0.000 OA
ATOM      3  N1  UNL     1     156.769 155.560 164.348  0.00  0.00    +0.000 N 
ATOM      4  C8  UNL     1     156.408 156.274 165.521  0.00  0.00    +0.000 A 
ATOM      5  O2  UNL     1     157.083 156.488 166.608  0.00  0.00    +0.000 OA
ATOM      6  C9  UNL     1     156.366 157.208 167.461  0.00  0.00    +0.000 A 
ATOM      7  N2  UNL     1     155.178 157.462 166.885  0.00  0.00    +0.000 NA
ATOM      8  N3  UNL     1     155.224 156.879 165.695  0.00  0.00    +0.000 NA
ATOM      9  H5  UNL     1     156.096 155.481 163.552  0.00  0.00    +0.000 HD
ENDROOT
BRANCH   1  14
ATOM     10  F1  UNL     1     159.494 152.031 159.603  0.00  0.00    +0.000 F 
ATOM     11  C1  UNL     1     159.125 152.709 160.734  0.00  0.00    +0.000 A 
ATOM     12  C2  UNL     1     159.330 154.071 160.743  0.00  0.00    +0.000 A 
ATOM     13  C3  UNL     1     158.965 154.779 161.878  0.00  0.00    +0.000 A 
ATOM     14  C4  UNL     1     158.411 154.193 162.989  0.00  0.00    +0.000 A 
ATOM     15  C5  UNL     1     158.220 152.813 162.941  0.00  0.00    +0.000 A 
ATOM     16  C6  UNL     1     158.571 152.067 161.825  0.00  0.00    +0.000 A 
ENDBRANCH   1  14
BRANCH   6  17
ATOM     17  C10 UNL     1     156.814 157.636 168.784  0.00  0.00    +0.000 A 
ATOM     18  C11 UNL     1     156.019 157.509 169.878  0.00  0.00    +0.000 A 
ATOM     19  C12 UNL     1     156.437 157.912 171.135  0.00  0.00    +0.000 A 
ATOM     20  C13 UNL     1     157.684 158.457 171.305  0.00  0.00    +0.000 A 
ATOM     21  C14 UNL     1     158.509 158.593 170.192  0.00  0.00    +0.000 A 
ATOM     22  C15 UNL     1     158.065 158.180 168.936  0.00  0.00    +0.000 A 
ENDBRANCH   6  17
TORSDOF 2
ENDMDL
MODEL 5
REMARK VINA RESULT:      -6.1      9.206     11.109
REMARK  Name = ./3D_structures\o76_MMV1578578_3D.pdb
REMARK  2 active torsions:
REMARK  status: ('A' for Active; 'I' for Inactive)
REMARK    1  A    between atoms: C4_5  and  C7_8
REMARK    2  A    between atoms: C9_13  and  C10_16
REMARK                            x       y       z     vdW  Elec       q    Type
REMARK                         _______ _______ _______ _____ _____    ______ ____
ROOT
ATOM      1  C7  UNL     1     164.156 149.891 167.917  0.00  0.00    +0.000 C 
ATOM      2  O1  UNL     1     164.768 149.242 168.828  0.00  0.00    +0.000 OA
ATOM      3  N1  UNL     1     162.749 149.747 167.914  0.00  0.00    +0.000 N 
ATOM      4  C8  UNL     1     162.050 148.940 168.851  0.00  0.00    +0.000 A 
ATOM      5  O2  UNL     1     162.502 148.219 169.831  0.00  0.00    +0.000 OA
ATOM      6  C9  UNL     1     161.500 147.621 170.462  0.00  0.00    +0.000 A 
ATOM      7  N2  UNL     1     160.358 147.981 169.850  0.00  0.00    +0.000 NA
ATOM      8  N3  UNL     1     160.718 148.790 168.864  0.00  0.00    +0.000 NA
ATOM      9  H5  UNL     1     162.225 150.270 167.175  0.00  0.00    +0.000 HD
ENDROOT
BRANCH   1  14
ATOM     10  F1  UNL     1     167.037 153.047 164.272  0.00  0.00    +0.000 F 
ATOM     11  C1  UNL     1     166.364 152.269 165.175  0.00  0.00    +0.000 A 
ATOM     12  C2  UNL     1     164.993 152.215 165.056  0.00  0.00    +0.000 A 
ATOM     13  C3  UNL     1     164.289 151.434 165.960  0.00  0.00    +0.000 A 
ATOM     14  C4  UNL     1     164.888 150.713 166.965  0.00  0.00    +0.000 A 
ATOM     15  C5  UNL     1     166.277 150.795 167.052  0.00  0.00    +0.000 A 
ATOM     16  C6  UNL     1     167.019 151.564 166.167  0.00  0.00    +0.000 A 
ENDBRANCH   1  14
BRANCH   6  17
ATOM     17  C10 UNL     1     161.642 146.735 171.613  0.00  0.00    +0.000 A 
ATOM     18  C11 UNL     1     162.373 147.095 172.701  0.00  0.00    +0.000 A 
ATOM     19  C12 UNL     1     162.514 146.261 173.796  0.00  0.00    +0.000 A 
ATOM     20  C13 UNL     1     161.908 145.031 173.808  0.00  0.00    +0.000 A 
ATOM     21  C14 UNL     1     161.156 144.648 172.700  0.00  0.00    +0.000 A 
ATOM     22  C15 UNL     1     161.030 145.506 171.608  0.00  0.00    +0.000 A 
ENDBRANCH   6  17
TORSDOF 2
ENDMDL
MODEL 6
REMARK VINA RESULT:      -5.9     22.271     25.612
REMARK  Name = ./3D_structures\o76_MMV1578578_3D.pdb
REMARK  2 active torsions:
REMARK  status: ('A' for Active; 'I' for Inactive)
REMARK    1  A    between atoms: C4_5  and  C7_8
REMARK    2  A    between atoms: C9_13  and  C10_16
REMARK                            x       y       z     vdW  Elec       q    Type
REMARK                         _______ _______ _______ _____ _____    ______ ____
ROOT
ATOM      1  C7  UNL     1     146.840 162.650 167.390  0.00  0.00    +0.000 C 
ATOM      2  O1  UNL     1     147.665 162.549 168.355  0.00  0.00    +0.000 OA
ATOM      3  N1  UNL     1     146.373 161.422 166.863  0.00  0.00    +0.000 N 
ATOM      4  C8  UNL     1     146.785 160.158 167.363  0.00  0.00    +0.000 A 
ATOM      5  O2  UNL     1     147.606 159.869 168.326  0.00  0.00    +0.000 OA
ATOM      6  C9  UNL     1     147.707 158.553 168.464  0.00  0.00    +0.000 A 
ATOM      7  N2  UNL     1     146.911 157.982 167.544  0.00  0.00    +0.000 NA
ATOM      8  N3  UNL     1     146.354 158.984 166.878  0.00  0.00    +0.000 NA
ATOM      9  H5  UNL     1     145.695 161.479 166.070  0.00  0.00    +0.000 HD
ENDROOT
BRANCH   1  14
ATOM     10  F1  UNL     1     145.319 167.699 165.457  0.00  0.00    +0.000 F 
ATOM     11  C1  UNL     1     145.722 166.478 165.927  0.00  0.00    +0.000 A 
ATOM     12  C2  UNL     1     144.736 165.556 166.200  0.00  0.00    +0.000 A 
ATOM     13  C3  UNL     1     145.120 164.312 166.677  0.00  0.00    +0.000 A 
ATOM     14  C4  UNL     1     146.428 163.953 166.889  0.00  0.00    +0.000 A 
ATOM     15  C5  UNL     1     147.396 164.915 166.601  0.00  0.00    +0.000 A 
ATOM     16  C6  UNL     1     147.055 166.171 166.121  0.00  0.00    +0.000 A 
ENDBRANCH   1  14
BRANCH   6  17
ATOM     17  C10 UNL     1     148.543 157.875 169.451  0.00  0.00    +0.000 A 
ATOM     18  C11 UNL     1     148.115 156.759 170.097  0.00  0.00    +0.000 A 
ATOM     19  C12 UNL     1     148.901 156.111 171.034  0.00  0.00    +0.000 A 
ATOM     20  C13 UNL     1     150.150 156.589 171.336  0.00  0.00    +0.000 A 
ATOM     21  C14 UNL     1     150.601 157.732 170.682  0.00  0.00    +0.000 A 
ATOM     22  C15 UNL     1     149.790 158.368 169.742  0.00  0.00    +0.000 A 
ENDBRANCH   6  17
TORSDOF 2
ENDMDL
MODEL 7
REMARK VINA RESULT:      -5.8     14.480     16.889
REMARK  Name = ./3D_structures\o76_MMV1578578_3D.pdb
REMARK  2 active torsions:
REMARK  status: ('A' for Active; 'I' for Inactive)
REMARK    1  A    between atoms: C4_5  and  C7_8
REMARK    2  A    between atoms: C9_13  and  C10_16
REMARK                            x       y       z     vdW  Elec       q    Type
REMARK                         _______ _______ _______ _____ _____    ______ ____
ROOT
ATOM      1  C7  UNL     1     157.587 158.042 168.849  0.00  0.00    +0.000 C 
ATOM      2  O1  UNL     1     156.867 157.058 168.478  0.00  0.00    +0.000 OA
ATOM      3  N1  UNL     1     158.680 158.345 168.002  0.00  0.00    +0.000 N 
ATOM      4  C8  UNL     1     158.968 157.615 166.819  0.00  0.00    +0.000 A 
ATOM      5  O2  UNL     1     158.353 156.600 166.294  0.00  0.00    +0.000 OA
ATOM      6  C9  UNL     1     158.960 156.223 165.176  0.00  0.00    +0.000 A 
ATOM      7  N2  UNL     1     160.010 157.040 164.985  0.00  0.00    +0.000 NA
ATOM      8  N3  UNL     1     159.998 157.887 166.004  0.00  0.00    +0.000 NA
ATOM      9  H5  UNL     1     159.285 159.148 168.287  0.00  0.00    +0.000 HD
ENDROOT
BRANCH   1  14
ATOM     10  F1  UNL     1     156.424 160.940 173.517  0.00  0.00    +0.000 F 
ATOM     11  C1  UNL     1     156.721 160.261 172.366  0.00  0.00    +0.000 A 
ATOM     12  C2  UNL     1     156.337 158.940 172.301  0.00  0.00    +0.000 A 
ATOM     13  C3  UNL     1     156.628 158.232 171.145  0.00  0.00    +0.000 A 
ATOM     14  C4  UNL     1     157.278 158.778 170.066  0.00  0.00    +0.000 A 
ATOM     15  C5  UNL     1     157.651 160.118 170.172  0.00  0.00    +0.000 A 
ATOM     16  C6  UNL     1     157.378 160.863 171.310  0.00  0.00    +0.000 A 
ENDBRANCH   1  14
BRANCH   6  17
ATOM     17  C10 UNL     1     158.538 155.114 164.325  0.00  0.00    +0.000 A 
ATOM     18  C11 UNL     1     158.807 153.823 164.656  0.00  0.00    +0.000 A 
ATOM     19  C12 UNL     1     158.411 152.767 163.854  0.00  0.00    +0.000 A 
ATOM     20  C13 UNL     1     157.726 153.004 162.689  0.00  0.00    +0.000 A 
ATOM     21  C14 UNL     1     157.445 154.321 162.338  0.00  0.00    +0.000 A 
ATOM     22  C15 UNL     1     157.855 155.369 163.162  0.00  0.00    +0.000 A 
ENDBRANCH   6  17
TORSDOF 2
ENDMDL
MODEL 8
REMARK VINA RESULT:      -5.7     20.911     24.757
REMARK  Name = ./3D_structures\o76_MMV1578578_3D.pdb
REMARK  2 active torsions:
REMARK  status: ('A' for Active; 'I' for Inactive)
REMARK    1  A    between atoms: C4_5  and  C7_8
REMARK    2  A    between atoms: C9_13  and  C10_16
REMARK                            x       y       z     vdW  Elec       q    Type
REMARK                         _______ _______ _______ _____ _____    ______ ____
ROOT
ATOM      1  C7  UNL     1     152.300 160.629 167.403  0.00  0.00    +0.000 C 
ATOM      2  O1  UNL     1     151.353 160.528 168.249  0.00  0.00    +0.000 OA
ATOM      3  N1  UNL     1     152.277 161.798 166.606  0.00  0.00    +0.000 N 
ATOM      4  C8  UNL     1     151.276 162.798 166.727  0.00  0.00    +0.000 A 
ATOM      5  O2  UNL     1     150.252 162.861 167.522  0.00  0.00    +0.000 OA
ATOM      6  C9  UNL     1     149.568 163.977 167.303  0.00  0.00    +0.000 A 
ATOM      7  N2  UNL     1     150.191 164.653 166.322  0.00  0.00    +0.000 NA
ATOM      8  N3  UNL     1     151.236 163.912 165.982  0.00  0.00    +0.000 NA
ATOM      9  H5  UNL     1     153.044 161.903 165.904  0.00  0.00    +0.000 HD
ENDROOT
BRANCH   1  14
ATOM     10  F1  UNL     1     156.215 156.618 167.038  0.00  0.00    +0.000 F 
ATOM     11  C1  UNL     1     155.255 157.587 167.159  0.00  0.00    +0.000 A 
ATOM     12  C2  UNL     1     155.020 158.376 166.055  0.00  0.00    +0.000 A 
ATOM     13  C3  UNL     1     154.052 159.364 166.154  0.00  0.00    +0.000 A 
ATOM     14  C4  UNL     1     153.318 159.594 167.292  0.00  0.00    +0.000 A 
ATOM     15  C5  UNL     1     153.587 158.774 168.387  0.00  0.00    +0.000 A 
ATOM     16  C6  UNL     1     154.547 157.774 168.330  0.00  0.00    +0.000 A 
ENDBRANCH   1  14
BRANCH   6  17
ATOM     17  C10 UNL     1     148.358 164.374 168.017  0.00  0.00    +0.000 A 
ATOM     18  C11 UNL     1     147.273 164.862 167.361  0.00  0.00    +0.000 A 
ATOM     19  C12 UNL     1     146.124 165.241 168.031  0.00  0.00    +0.000 A 
ATOM     20  C13 UNL     1     146.053 165.130 169.396  0.00  0.00    +0.000 A 
ATOM     21  C14 UNL     1     147.157 164.632 170.082  0.00  0.00    +0.000 A 
ATOM     22  C15 UNL     1     148.305 164.257 169.384  0.00  0.00    +0.000 A 
ENDBRANCH   6  17
TORSDOF 2
ENDMDL
MODEL 9
REMARK VINA RESULT:      -5.7     22.618     25.971
REMARK  Name = ./3D_structures\o76_MMV1578578_3D.pdb
REMARK  2 active torsions:
REMARK  status: ('A' for Active; 'I' for Inactive)
REMARK    1  A    between atoms: C4_5  and  C7_8
REMARK    2  A    between atoms: C9_13  and  C10_16
REMARK                            x       y       z     vdW  Elec       q    Type
REMARK                         _______ _______ _______ _____ _____    ______ ____
ROOT
ATOM      1  C7  UNL     1     147.957 163.701 167.591  0.00  0.00    +0.000 C 
ATOM      2  O1  UNL     1     148.022 162.486 167.216  0.00  0.00    +0.000 OA
ATOM      3  N1  UNL     1     148.826 164.054 168.651  0.00  0.00    +0.000 N 
ATOM      4  C8  UNL     1     149.714 163.131 169.264  0.00  0.00    +0.000 A 
ATOM      5  O2  UNL     1     149.912 161.873 169.015  0.00  0.00    +0.000 OA
ATOM      6  C9  UNL     1     150.839 161.384 169.829  0.00  0.00    +0.000 A 
ATOM      7  N2  UNL     1     151.248 162.382 170.631  0.00  0.00    +0.000 NA
ATOM      8  N3  UNL     1     150.545 163.445 170.268  0.00  0.00    +0.000 NA
ATOM      9  H5  UNL     1     148.790 165.047 168.977  0.00  0.00    +0.000 HD
ENDROOT
BRANCH   1  14
ATOM     10  F1  UNL     1     144.474 167.342 165.110  0.00  0.00    +0.000 F 
ATOM     11  C1  UNL     1     145.349 166.475 165.707  0.00  0.00    +0.000 A 
ATOM     12  C2  UNL     1     144.816 165.337 166.271  0.00  0.00    +0.000 A 
ATOM     13  C3  UNL     1     145.682 164.444 166.882  0.00  0.00    +0.000 A 
ATOM     14  C4  UNL     1     147.041 164.634 166.952  0.00  0.00    +0.000 A 
ATOM     15  C5  UNL     1     147.541 165.798 166.369  0.00  0.00    +0.000 A 
ATOM     16  C6  UNL     1     146.708 166.718 165.748  0.00  0.00    +0.000 A 
ENDBRANCH   1  14
BRANCH   6  17
ATOM     17  C10 UNL     1     151.312 160.002 169.828  0.00  0.00    +0.000 A 
ATOM     18  C11 UNL     1     152.487 159.654 169.240  0.00  0.00    +0.000 A 
ATOM     19  C12 UNL     1     152.941 158.347 169.235  0.00  0.00    +0.000 A 
ATOM     20  C13 UNL     1     152.203 157.357 169.833  0.00  0.00    +0.000 A 
ATOM     21  C14 UNL     1     150.998 157.700 170.439  0.00  0.00    +0.000 A 
ATOM     22  C15 UNL     1     150.561 159.025 170.431  0.00  0.00    +0.000 A 
ENDBRANCH   6  17
TORSDOF 2
ENDMDL
