MODEL 1
REMARK VINA RESULT:      -6.2      0.000      0.000
REMARK  Name = ./3D_structures\o7_MMV1634384_3D.pdb
REMARK  9 active torsions:
REMARK  status: ('A' for Active; 'I' for Inactive)
REMARK    1  A    between atoms: C2_3  and  C3_4
REMARK    2  A    between atoms: N1_6  and  C4_7
REMARK    3  A    between atoms: C5_8  and  C6_9
REMARK    4  A    between atoms: C14_19  and  S2_20
REMARK    5  A    between atoms: S2_20  and  N3_23
REMARK    6  A    between atoms: N3_23  and  C15_24
REMARK    7  A    between atoms: N3_23  and  C17_26
REMARK    8  A    between atoms: C15_24  and  C16_25
REMARK    9  A    between atoms: C17_26  and  C18_27
REMARK                            x       y       z     vdW  Elec       q    Type
REMARK                         _______ _______ _______ _____ _____    ______ ____
ROOT
ATOM      1 CL1  UNL     1     153.715 163.118 164.392  0.00  0.00    +0.000 Cl
ATOM      2  C1  UNL     1     154.207 161.595 165.051  0.00  0.00    +0.000 A 
ATOM      3  C2  UNL     1     153.358 160.774 165.730  0.00  0.00    +0.000 A 
ATOM      4  C13 UNL     1     153.747 159.568 166.251  0.00  0.00    +0.000 A 
ATOM      5  C14 UNL     1     155.071 159.132 166.094  0.00  0.00    +0.000 A 
ATOM      6  C19 UNL     1     155.914 159.959 165.412  0.00  0.00    +0.000 A 
ATOM      7  C20 UNL     1     155.521 161.190 164.880  0.00  0.00    +0.000 A 
ENDROOT
BRANCH   3   8
ATOM      8  C3  UNL     1     151.951 161.195 165.917  0.00  0.00    +0.000 C 
ATOM      9  O1  UNL     1     151.188 160.865 165.014  0.00  0.00    +0.000 OA
ATOM     10  N1  UNL     1     151.563 161.910 167.052  0.00  0.00    +0.000 N 
ATOM     11  H1  UNL     1     152.345 162.119 167.757  0.00  0.00    +0.000 HD
BRANCH  10  12
ATOM     12  C4  UNL     1     150.273 162.377 167.338  0.00  0.00    +0.000 A 
ATOM     13  C5  UNL     1     149.141 161.979 167.902  0.00  0.00    +0.000 A 
ATOM     14  C7  UNL     1     148.094 162.813 168.051  0.00  0.00    +0.000 A 
ATOM     15  C8  UNL     1     148.242 164.104 167.589  0.00  0.00    +0.000 A 
ATOM     16  S1  UNL     1     149.871 164.125 166.947  0.00  0.00    +0.000 S 
ATOM     17  C9  UNL     1     147.148 165.107 167.703  0.00  0.00    +0.000 C 
ATOM     18  C10 UNL     1     146.503 165.077 169.069  0.00  0.00    +0.000 C 
ATOM     19  C11 UNL     1     146.633 163.724 169.728  0.00  0.00    +0.000 C 
ATOM     20  C12 UNL     1     146.694 162.634 168.656  0.00  0.00    +0.000 C 
BRANCH  13  21
ATOM     21  C6  UNL     1     148.964 160.573 168.337  0.00  0.00    +0.000 C 
ATOM     22  N2  UNL     1     148.834 159.454 168.701  0.00  0.00    +0.000 NA
ENDBRANCH  13  21
ENDBRANCH  10  12
ENDBRANCH   3   8
BRANCH   5  23
ATOM     23  S2  UNL     1     155.577 157.626 166.740  0.00  0.00    +0.000 S 
ATOM     24  O2  UNL     1     154.556 157.146 167.765  0.00  0.00    +0.000 OA
ATOM     25  O3  UNL     1     155.577 156.582 165.657  0.00  0.00    +0.000 OA
BRANCH  23  26
ATOM     26  N3  UNL     1     157.091 157.634 167.482  0.00  0.00    +0.000 NA
BRANCH  26  27
ATOM     27  C15 UNL     1     158.156 157.022 166.803  0.00  0.00    +0.000 C 
ATOM     28  C16 UNL     1     158.897 157.894 165.831  0.00  0.00    +0.000 C 
ENDBRANCH  26  27
BRANCH  26  29
ATOM     29  C17 UNL     1     157.114 157.650 168.893  0.00  0.00    +0.000 C 
ATOM     30  C18 UNL     1     158.381 158.268 169.445  0.00  0.00    +0.000 C 
ENDBRANCH  26  29
ENDBRANCH  23  26
ENDBRANCH   5  23
TORSDOF 7
ENDMDL
MODEL 2
REMARK VINA RESULT:      -6.2      1.351      2.242
REMARK  Name = ./3D_structures\o7_MMV1634384_3D.pdb
REMARK  9 active torsions:
REMARK  status: ('A' for Active; 'I' for Inactive)
REMARK    1  A    between atoms: C2_3  and  C3_4
REMARK    2  A    between atoms: N1_6  and  C4_7
REMARK    3  A    between atoms: C5_8  and  C6_9
REMARK    4  A    between atoms: C14_19  and  S2_20
REMARK    5  A    between atoms: S2_20  and  N3_23
REMARK    6  A    between atoms: N3_23  and  C15_24
REMARK    7  A    between atoms: N3_23  and  C17_26
REMARK    8  A    between atoms: C15_24  and  C16_25
REMARK    9  A    between atoms: C17_26  and  C18_27
REMARK                            x       y       z     vdW  Elec       q    Type
REMARK                         _______ _______ _______ _____ _____    ______ ____
ROOT
ATOM      1 CL1  UNL     1     154.249 163.191 164.159  0.00  0.00    +0.000 Cl
ATOM      2  C1  UNL     1     154.598 161.648 164.862  0.00  0.00    +0.000 A 
ATOM      3  C2  UNL     1     153.673 160.923 165.551  0.00  0.00    +0.000 A 
ATOM      4  C13 UNL     1     153.948 159.702 166.107  0.00  0.00    +0.000 A 
ATOM      5  C14 UNL     1     155.230 159.147 165.978  0.00  0.00    +0.000 A 
ATOM      6  C19 UNL     1     156.150 159.879 165.286  0.00  0.00    +0.000 A 
ATOM      7  C20 UNL     1     155.872 161.125 164.717  0.00  0.00    +0.000 A 
ENDROOT
BRANCH   3   8
ATOM      8  C3  UNL     1     152.306 161.471 165.710  0.00  0.00    +0.000 C 
ATOM      9  O1  UNL     1     151.469 161.003 164.944  0.00  0.00    +0.000 OA
ATOM     10  N1  UNL     1     152.034 162.444 166.673  0.00  0.00    +0.000 N 
ATOM     11  H1  UNL     1     152.870 162.750 167.273  0.00  0.00    +0.000 HD
BRANCH  10  12
ATOM     12  C4  UNL     1     150.793 163.051 166.912  0.00  0.00    +0.000 A 
ATOM     13  C5  UNL     1     150.066 164.088 166.518  0.00  0.00    +0.000 A 
ATOM     14  C7  UNL     1     148.813 164.284 166.970  0.00  0.00    +0.000 A 
ATOM     15  C8  UNL     1     148.311 163.365 167.867  0.00  0.00    +0.000 A 
ATOM     16  S1  UNL     1     149.624 162.223 168.061  0.00  0.00    +0.000 S 
ATOM     17  C9  UNL     1     146.938 163.488 168.429  0.00  0.00    +0.000 C 
ATOM     18  C10 UNL     1     145.926 163.832 167.361  0.00  0.00    +0.000 C 
ATOM     19  C11 UNL     1     146.554 164.566 166.200  0.00  0.00    +0.000 C 
ATOM     20  C12 UNL     1     147.761 165.369 166.692  0.00  0.00    +0.000 C 
BRANCH  13  21
ATOM     21  C6  UNL     1     150.634 165.108 165.606  0.00  0.00    +0.000 C 
ATOM     22  N2  UNL     1     151.096 165.933 164.892  0.00  0.00    +0.000 NA
ENDBRANCH  13  21
ENDBRANCH  10  12
ENDBRANCH   3   8
BRANCH   5  23
ATOM     23  S2  UNL     1     155.595 157.620 166.668  0.00  0.00    +0.000 S 
ATOM     24  O2  UNL     1     154.519 157.254 167.684  0.00  0.00    +0.000 OA
ATOM     25  O3  UNL     1     155.525 156.554 165.609  0.00  0.00    +0.000 OA
BRANCH  23  26
ATOM     26  N3  UNL     1     157.091 157.518 167.439  0.00  0.00    +0.000 NA
BRANCH  26  27
ATOM     27  C15 UNL     1     158.120 156.828 166.782  0.00  0.00    +0.000 C 
ATOM     28  C16 UNL     1     158.964 157.649 165.850  0.00  0.00    +0.000 C 
ENDBRANCH  26  27
BRANCH  26  29
ATOM     29  C17 UNL     1     157.088 157.535 168.850  0.00  0.00    +0.000 C 
ATOM     30  C18 UNL     1     158.291 158.252 169.424  0.00  0.00    +0.000 C 
ENDBRANCH  26  29
ENDBRANCH  23  26
ENDBRANCH   5  23
TORSDOF 7
ENDMDL
MODEL 3
REMARK VINA RESULT:      -5.9      2.910      8.758
REMARK  Name = ./3D_structures\o7_MMV1634384_3D.pdb
REMARK  9 active torsions:
REMARK  status: ('A' for Active; 'I' for Inactive)
REMARK    1  A    between atoms: C2_3  and  C3_4
REMARK    2  A    between atoms: N1_6  and  C4_7
REMARK    3  A    between atoms: C5_8  and  C6_9
REMARK    4  A    between atoms: C14_19  and  S2_20
REMARK    5  A    between atoms: S2_20  and  N3_23
REMARK    6  A    between atoms: N3_23  and  C15_24
REMARK    7  A    between atoms: N3_23  and  C17_26
REMARK    8  A    between atoms: C15_24  and  C16_25
REMARK    9  A    between atoms: C17_26  and  C18_27
REMARK                            x       y       z     vdW  Elec       q    Type
REMARK                         _______ _______ _______ _____ _____    ______ ____
ROOT
ATOM      1 CL1  UNL     1     153.938 163.929 163.662  0.00  0.00    +0.000 Cl
ATOM      2  C1  UNL     1     152.508 164.310 164.561  0.00  0.00    +0.000 A 
ATOM      3  C2  UNL     1     151.899 163.420 165.393  0.00  0.00    +0.000 A 
ATOM      4  C13 UNL     1     150.768 163.721 166.105  0.00  0.00    +0.000 A 
ATOM      5  C14 UNL     1     150.189 164.994 165.994  0.00  0.00    +0.000 A 
ATOM      6  C19 UNL     1     150.806 165.879 165.159  0.00  0.00    +0.000 A 
ATOM      7  C20 UNL     1     151.959 165.575 164.432  0.00  0.00    +0.000 A 
ENDROOT
BRANCH   3   8
ATOM      8  C3  UNL     1     152.478 162.065 165.542  0.00  0.00    +0.000 C 
ATOM      9  O1  UNL     1     152.050 161.231 164.749  0.00  0.00    +0.000 OA
ATOM     10  N1  UNL     1     153.437 161.800 166.521  0.00  0.00    +0.000 N 
ATOM     11  H1  UNL     1     153.715 162.635 167.135  0.00  0.00    +0.000 HD
BRANCH  10  12
ATOM     12  C4  UNL     1     154.046 160.564 166.773  0.00  0.00    +0.000 A 
ATOM     13  C5  UNL     1     155.024 159.792 166.318  0.00  0.00    +0.000 A 
ATOM     14  C7  UNL     1     155.355 158.638 166.928  0.00  0.00    +0.000 A 
ATOM     15  C8  UNL     1     154.633 158.284 168.048  0.00  0.00    +0.000 A 
ATOM     16  S1  UNL     1     153.488 159.596 168.229  0.00  0.00    +0.000 S 
ATOM     17  C9  UNL     1     154.917 157.029 168.798  0.00  0.00    +0.000 C 
ATOM     18  C10 UNL     1     156.399 156.825 169.006  0.00  0.00    +0.000 C 
ATOM     19  C11 UNL     1     157.221 157.507 167.937  0.00  0.00    +0.000 C 
ATOM     20  C12 UNL     1     156.419 157.570 166.635  0.00  0.00    +0.000 C 
BRANCH  13  21
ATOM     21  C6  UNL     1     155.753 160.144 165.076  0.00  0.00    +0.000 C 
ATOM     22  N2  UNL     1     156.325 160.443 164.083  0.00  0.00    +0.000 NA
ENDBRANCH  13  21
ENDBRANCH  10  12
ENDBRANCH   3   8
BRANCH   5  23
ATOM     23  S2  UNL     1     148.773 165.390 166.875  0.00  0.00    +0.000 S 
ATOM     24  O2  UNL     1     148.176 166.680 166.323  0.00  0.00    +0.000 OA
ATOM     25  O3  UNL     1     147.723 164.336 166.652  0.00  0.00    +0.000 OA
BRANCH  23  26
ATOM     26  N3  UNL     1     148.992 165.592 168.535  0.00  0.00    +0.000 NA
BRANCH  26  27
ATOM     27  C15 UNL     1     150.152 166.251 168.967  0.00  0.00    +0.000 C 
ATOM     28  C16 UNL     1     151.234 165.372 169.524  0.00  0.00    +0.000 C 
ENDBRANCH  26  27
BRANCH  26  29
ATOM     29  C17 UNL     1     148.418 164.619 169.381  0.00  0.00    +0.000 C 
ATOM     30  C18 UNL     1     147.212 165.141 170.131  0.00  0.00    +0.000 C 
ENDBRANCH  26  29
ENDBRANCH  23  26
ENDBRANCH   5  23
TORSDOF 7
ENDMDL
MODEL 4
REMARK VINA RESULT:      -5.9      4.219      9.631
REMARK  Name = ./3D_structures\o7_MMV1634384_3D.pdb
REMARK  9 active torsions:
REMARK  status: ('A' for Active; 'I' for Inactive)
REMARK    1  A    between atoms: C2_3  and  C3_4
REMARK    2  A    between atoms: N1_6  and  C4_7
REMARK    3  A    between atoms: C5_8  and  C6_9
REMARK    4  A    between atoms: C14_19  and  S2_20
REMARK    5  A    between atoms: S2_20  and  N3_23
REMARK    6  A    between atoms: N3_23  and  C15_24
REMARK    7  A    between atoms: N3_23  and  C17_26
REMARK    8  A    between atoms: C15_24  and  C16_25
REMARK    9  A    between atoms: C17_26  and  C18_27
REMARK                            x       y       z     vdW  Elec       q    Type
REMARK                         _______ _______ _______ _____ _____    ______ ____
ROOT
ATOM      1 CL1  UNL     1     153.457 165.222 171.593  0.00  0.00    +0.000 Cl
ATOM      2  C1  UNL     1     151.863 164.874 171.017  0.00  0.00    +0.000 A 
ATOM      3  C2  UNL     1     151.543 163.711 170.384  0.00  0.00    +0.000 A 
ATOM      4  C13 UNL     1     150.281 163.434 169.929  0.00  0.00    +0.000 A 
ATOM      5  C14 UNL     1     149.251 164.370 170.108  0.00  0.00    +0.000 A 
ATOM      6  C19 UNL     1     149.580 165.531 170.743  0.00  0.00    +0.000 A 
ATOM      7  C20 UNL     1     150.866 165.817 171.209  0.00  0.00    +0.000 A 
ENDROOT
BRANCH   3   8
ATOM      8  C3  UNL     1     152.600 162.694 170.175  0.00  0.00    +0.000 C 
ATOM      9  O1  UNL     1     153.176 162.764 169.094  0.00  0.00    +0.000 OA
ATOM     10  N1  UNL     1     152.887 161.749 171.161  0.00  0.00    +0.000 N 
ATOM     11  H1  UNL     1     152.301 161.820 172.057  0.00  0.00    +0.000 HD
BRANCH  10  12
ATOM     12  C4  UNL     1     153.847 160.731 171.079  0.00  0.00    +0.000 A 
ATOM     13  C5  UNL     1     153.996 159.497 170.615  0.00  0.00    +0.000 A 
ATOM     14  C7  UNL     1     155.179 158.857 170.678  0.00  0.00    +0.000 A 
ATOM     15  C8  UNL     1     156.236 159.533 171.250  0.00  0.00    +0.000 A 
ATOM     16  S1  UNL     1     155.542 161.078 171.694  0.00  0.00    +0.000 S 
ATOM     17  C9  UNL     1     157.587 158.918 171.370  0.00  0.00    +0.000 C 
ATOM     18  C10 UNL     1     157.998 158.221 170.095  0.00  0.00    +0.000 C 
ATOM     19  C11 UNL     1     156.806 157.762 169.289  0.00  0.00    +0.000 C 
ATOM     20  C12 UNL     1     155.636 157.461 170.228  0.00  0.00    +0.000 C 
BRANCH  13  21
ATOM     21  C6  UNL     1     152.841 158.751 170.061  0.00  0.00    +0.000 C 
ATOM     22  N2  UNL     1     151.906 158.168 169.628  0.00  0.00    +0.000 NA
ENDBRANCH  13  21
ENDBRANCH  10  12
ENDBRANCH   3   8
BRANCH   5  23
ATOM     23  S2  UNL     1     147.666 164.043 169.544  0.00  0.00    +0.000 S 
ATOM     24  O2  UNL     1     147.539 162.558 169.222  0.00  0.00    +0.000 OA
ATOM     25  O3  UNL     1     146.672 164.300 170.643  0.00  0.00    +0.000 OA
BRANCH  23  26
ATOM     26  N3  UNL     1     147.195 164.910 168.176  0.00  0.00    +0.000 NA
BRANCH  26  27
ATOM     27  C15 UNL     1     145.840 165.255 168.054  0.00  0.00    +0.000 C 
ATOM     28  C16 UNL     1     145.166 164.814 166.788  0.00  0.00    +0.000 C 
ENDBRANCH  26  27
BRANCH  26  29
ATOM     29  C17 UNL     1     147.946 164.709 166.998  0.00  0.00    +0.000 C 
ATOM     30  C18 UNL     1     148.837 165.886 166.671  0.00  0.00    +0.000 C 
ENDBRANCH  26  29
ENDBRANCH  23  26
ENDBRANCH   5  23
TORSDOF 7
ENDMDL
MODEL 5
REMARK VINA RESULT:      -5.8      3.328      9.280
REMARK  Name = ./3D_structures\o7_MMV1634384_3D.pdb
REMARK  9 active torsions:
REMARK  status: ('A' for Active; 'I' for Inactive)
REMARK    1  A    between atoms: C2_3  and  C3_4
REMARK    2  A    between atoms: N1_6  and  C4_7
REMARK    3  A    between atoms: C5_8  and  C6_9
REMARK    4  A    between atoms: C14_19  and  S2_20
REMARK    5  A    between atoms: S2_20  and  N3_23
REMARK    6  A    between atoms: N3_23  and  C15_24
REMARK    7  A    between atoms: N3_23  and  C17_26
REMARK    8  A    between atoms: C15_24  and  C16_25
REMARK    9  A    between atoms: C17_26  and  C18_27
REMARK                            x       y       z     vdW  Elec       q    Type
REMARK                         _______ _______ _______ _____ _____    ______ ____
ROOT
ATOM      1 CL1  UNL     1     150.990 165.633 165.260  0.00  0.00    +0.000 Cl
ATOM      2  C1  UNL     1     149.686 165.147 166.289  0.00  0.00    +0.000 A 
ATOM      3  C2  UNL     1     149.791 164.126 167.184  0.00  0.00    +0.000 A 
ATOM      4  C13 UNL     1     148.760 163.741 167.999  0.00  0.00    +0.000 A 
ATOM      5  C14 UNL     1     147.528 164.409 167.933  0.00  0.00    +0.000 A 
ATOM      6  C19 UNL     1     147.432 165.432 167.035  0.00  0.00    +0.000 A 
ATOM      7  C20 UNL     1     148.482 165.827 166.202  0.00  0.00    +0.000 A 
ENDROOT
BRANCH   3   8
ATOM      8  C3  UNL     1     151.074 163.393 167.287  0.00  0.00    +0.000 C 
ATOM      9  O1  UNL     1     151.923 163.934 167.990  0.00  0.00    +0.000 OA
ATOM     10  N1  UNL     1     151.262 162.180 166.621  0.00  0.00    +0.000 N 
ATOM     11  H1  UNL     1     150.423 161.832 166.049  0.00  0.00    +0.000 HD
BRANCH  10  12
ATOM     12  C4  UNL     1     152.427 161.402 166.627  0.00  0.00    +0.000 A 
ATOM     13  C5  UNL     1     152.984 160.395 167.286  0.00  0.00    +0.000 A 
ATOM     14  C7  UNL     1     154.158 159.862 166.900  0.00  0.00    +0.000 A 
ATOM     15  C8  UNL     1     154.767 160.406 165.790  0.00  0.00    +0.000 A 
ATOM     16  S1  UNL     1     153.664 161.674 165.298  0.00  0.00    +0.000 S 
ATOM     17  C9  UNL     1     156.068 159.892 165.278  0.00  0.00    +0.000 C 
ATOM     18  C10 UNL     1     156.096 158.382 165.242  0.00  0.00    +0.000 C 
ATOM     19  C11 UNL     1     155.160 157.773 166.258  0.00  0.00    +0.000 C 
ATOM     20  C12 UNL     1     155.017 158.715 167.456  0.00  0.00    +0.000 C 
BRANCH  13  21
ATOM     21  C6  UNL     1     152.358 159.856 168.517  0.00  0.00    +0.000 C 
ATOM     22  N2  UNL     1     151.839 159.429 169.492  0.00  0.00    +0.000 NA
ENDBRANCH  13  21
ENDBRANCH  10  12
ENDBRANCH   3   8
BRANCH   5  23
ATOM     23  S2  UNL     1     146.225 163.942 168.944  0.00  0.00    +0.000 S 
ATOM     24  O2  UNL     1     146.770 163.229 170.176  0.00  0.00    +0.000 OA
ATOM     25  O3  UNL     1     145.524 165.166 169.467  0.00  0.00    +0.000 OA
BRANCH  23  26
ATOM     26  N3  UNL     1     145.083 162.931 168.224  0.00  0.00    +0.000 NA
BRANCH  26  27
ATOM     27  C15 UNL     1     145.531 161.714 167.689  0.00  0.00    +0.000 C 
ATOM     28  C16 UNL     1     144.991 160.475 168.343  0.00  0.00    +0.000 C 
ENDBRANCH  26  27
BRANCH  26  29
ATOM     29  C17 UNL     1     143.957 163.548 167.638  0.00  0.00    +0.000 C 
ATOM     30  C18 UNL     1     144.157 163.843 166.168  0.00  0.00    +0.000 C 
ENDBRANCH  26  29
ENDBRANCH  23  26
ENDBRANCH   5  23
TORSDOF 7
ENDMDL
MODEL 6
REMARK VINA RESULT:      -5.7      2.923      8.985
REMARK  Name = ./3D_structures\o7_MMV1634384_3D.pdb
REMARK  9 active torsions:
REMARK  status: ('A' for Active; 'I' for Inactive)
REMARK    1  A    between atoms: C2_3  and  C3_4
REMARK    2  A    between atoms: N1_6  and  C4_7
REMARK    3  A    between atoms: C5_8  and  C6_9
REMARK    4  A    between atoms: C14_19  and  S2_20
REMARK    5  A    between atoms: S2_20  and  N3_23
REMARK    6  A    between atoms: N3_23  and  C15_24
REMARK    7  A    between atoms: N3_23  and  C17_26
REMARK    8  A    between atoms: C15_24  and  C16_25
REMARK    9  A    between atoms: C17_26  and  C18_27
REMARK                            x       y       z     vdW  Elec       q    Type
REMARK                         _______ _______ _______ _____ _____    ______ ____
ROOT
ATOM      1 CL1  UNL     1     154.016 163.410 164.321  0.00  0.00    +0.000 Cl
ATOM      2  C1  UNL     1     152.542 163.913 165.077  0.00  0.00    +0.000 A 
ATOM      3  C2  UNL     1     151.993 163.257 166.136  0.00  0.00    +0.000 A 
ATOM      4  C13 UNL     1     150.827 163.654 166.735  0.00  0.00    +0.000 A 
ATOM      5  C14 UNL     1     150.145 164.784 166.259  0.00  0.00    +0.000 A 
ATOM      6  C19 UNL     1     150.703 165.436 165.199  0.00  0.00    +0.000 A 
ATOM      7  C20 UNL     1     151.892 165.033 164.586  0.00  0.00    +0.000 A 
ENDROOT
BRANCH   3   8
ATOM      8  C3  UNL     1     152.680 162.059 166.672  0.00  0.00    +0.000 C 
ATOM      9  O1  UNL     1     152.222 160.986 166.290  0.00  0.00    +0.000 OA
ATOM     10  N1  UNL     1     153.765 162.185 167.541  0.00  0.00    +0.000 N 
ATOM     11  H1  UNL     1     154.054 163.191 167.778  0.00  0.00    +0.000 HD
BRANCH  10  12
ATOM     12  C4  UNL     1     154.487 161.136 168.126  0.00  0.00    +0.000 A 
ATOM     13  C5  UNL     1     155.320 160.158 167.798  0.00  0.00    +0.000 A 
ATOM     14  C7  UNL     1     155.881 159.365 168.731  0.00  0.00    +0.000 A 
ATOM     15  C8  UNL     1     155.552 159.606 170.048  0.00  0.00    +0.000 A 
ATOM     16  S1  UNL     1     154.447 160.962 169.953  0.00  0.00    +0.000 S 
ATOM     17  C9  UNL     1     156.115 158.789 171.159  0.00  0.00    +0.000 C 
ATOM     18  C10 UNL     1     157.599 158.564 170.990  0.00  0.00    +0.000 C 
ATOM     19  C11 UNL     1     158.021 158.630 169.541  0.00  0.00    +0.000 C 
ATOM     20  C12 UNL     1     156.861 158.185 168.647  0.00  0.00    +0.000 C 
BRANCH  13  21
ATOM     21  C6  UNL     1     155.620 159.861 166.377  0.00  0.00    +0.000 C 
ATOM     22  N2  UNL     1     155.878 159.617 165.247  0.00  0.00    +0.000 NA
ENDBRANCH  13  21
ENDBRANCH  10  12
ENDBRANCH   3   8
BRANCH   5  23
ATOM     23  S2  UNL     1     148.684 165.297 166.994  0.00  0.00    +0.000 S 
ATOM     24  O2  UNL     1     148.934 165.589 168.470  0.00  0.00    +0.000 OA
ATOM     25  O3  UNL     1     148.246 166.606 166.397  0.00  0.00    +0.000 OA
BRANCH  23  26
ATOM     26  N3  UNL     1     147.405 164.203 166.894  0.00  0.00    +0.000 NA
BRANCH  26  27
ATOM     27  C15 UNL     1     146.337 164.521 166.041  0.00  0.00    +0.000 C 
ATOM     28  C16 UNL     1     145.061 164.929 166.717  0.00  0.00    +0.000 C 
ENDBRANCH  26  27
BRANCH  26  29
ATOM     29  C17 UNL     1     147.141 163.416 168.036  0.00  0.00    +0.000 C 
ATOM     30  C18 UNL     1     147.739 162.030 167.935  0.00  0.00    +0.000 C 
ENDBRANCH  26  29
ENDBRANCH  23  26
ENDBRANCH   5  23
TORSDOF 7
ENDMDL
MODEL 7
REMARK VINA RESULT:      -5.6      2.939      8.562
REMARK  Name = ./3D_structures\o7_MMV1634384_3D.pdb
REMARK  9 active torsions:
REMARK  status: ('A' for Active; 'I' for Inactive)
REMARK    1  A    between atoms: C2_3  and  C3_4
REMARK    2  A    between atoms: N1_6  and  C4_7
REMARK    3  A    between atoms: C5_8  and  C6_9
REMARK    4  A    between atoms: C14_19  and  S2_20
REMARK    5  A    between atoms: S2_20  and  N3_23
REMARK    6  A    between atoms: N3_23  and  C15_24
REMARK    7  A    between atoms: N3_23  and  C17_26
REMARK    8  A    between atoms: C15_24  and  C16_25
REMARK    9  A    between atoms: C17_26  and  C18_27
REMARK                            x       y       z     vdW  Elec       q    Type
REMARK                         _______ _______ _______ _____ _____    ______ ____
ROOT
ATOM      1 CL1  UNL     1     154.012 163.813 164.192  0.00  0.00    +0.000 Cl
ATOM      2  C1  UNL     1     152.518 164.200 164.977  0.00  0.00    +0.000 A 
ATOM      3  C2  UNL     1     151.981 163.431 165.964  0.00  0.00    +0.000 A 
ATOM      4  C13 UNL     1     150.799 163.737 166.585  0.00  0.00    +0.000 A 
ATOM      5  C14 UNL     1     150.088 164.887 166.211  0.00  0.00    +0.000 A 
ATOM      6  C19 UNL     1     150.634 165.652 165.222  0.00  0.00    +0.000 A 
ATOM      7  C20 UNL     1     151.839 165.343 164.586  0.00  0.00    +0.000 A 
ENDROOT
BRANCH   3   8
ATOM      8  C3  UNL     1     152.698 162.208 166.391  0.00  0.00    +0.000 C 
ATOM      9  O1  UNL     1     152.517 161.227 165.677  0.00  0.00    +0.000 OA
ATOM     10  N1  UNL     1     153.511 162.215 167.526  0.00  0.00    +0.000 N 
ATOM     11  H1  UNL     1     153.574 163.153 168.045  0.00  0.00    +0.000 HD
BRANCH  10  12
ATOM     12  C4  UNL     1     154.227 161.126 168.041  0.00  0.00    +0.000 A 
ATOM     13  C5  UNL     1     154.027 159.953 168.626  0.00  0.00    +0.000 A 
ATOM     14  C7  UNL     1     155.049 159.123 168.912  0.00  0.00    +0.000 A 
ATOM     15  C8  UNL     1     156.318 159.542 168.576  0.00  0.00    +0.000 A 
ATOM     16  S1  UNL     1     156.053 161.115 167.853  0.00  0.00    +0.000 S 
ATOM     17  C9  UNL     1     157.518 158.703 168.848  0.00  0.00    +0.000 C 
ATOM     18  C10 UNL     1     157.290 157.261 168.462  0.00  0.00    +0.000 C 
ATOM     19  C11 UNL     1     155.828 156.884 168.512  0.00  0.00    +0.000 C 
ATOM     20  C12 UNL     1     155.114 157.735 169.566  0.00  0.00    +0.000 C 
BRANCH  13  21
ATOM     21  C6  UNL     1     152.668 159.535 169.043  0.00  0.00    +0.000 C 
ATOM     22  N2  UNL     1     151.590 159.190 169.392  0.00  0.00    +0.000 NA
ENDBRANCH  13  21
ENDBRANCH  10  12
ENDBRANCH   3   8
BRANCH   5  23
ATOM     23  S2  UNL     1     148.607 165.287 166.976  0.00  0.00    +0.000 S 
ATOM     24  O2  UNL     1     148.099 166.617 166.432  0.00  0.00    +0.000 OA
ATOM     25  O3  UNL     1     147.555 164.276 166.608  0.00  0.00    +0.000 OA
BRANCH  23  26
ATOM     26  N3  UNL     1     148.675 165.409 168.657  0.00  0.00    +0.000 NA
BRANCH  26  27
ATOM     27  C15 UNL     1     149.776 166.071 169.221  0.00  0.00    +0.000 C 
ATOM     28  C16 UNL     1     150.705 165.216 170.034  0.00  0.00    +0.000 C 
ENDBRANCH  26  27
BRANCH  26  29
ATOM     29  C17 UNL     1     148.056 164.382 169.400  0.00  0.00    +0.000 C 
ATOM     30  C18 UNL     1     146.802 164.852 170.106  0.00  0.00    +0.000 C 
ENDBRANCH  26  29
ENDBRANCH  23  26
ENDBRANCH   5  23
TORSDOF 7
ENDMDL
MODEL 8
REMARK VINA RESULT:      -5.6      2.635      9.079
REMARK  Name = ./3D_structures\o7_MMV1634384_3D.pdb
REMARK  9 active torsions:
REMARK  status: ('A' for Active; 'I' for Inactive)
REMARK    1  A    between atoms: C2_3  and  C3_4
REMARK    2  A    between atoms: N1_6  and  C4_7
REMARK    3  A    between atoms: C5_8  and  C6_9
REMARK    4  A    between atoms: C14_19  and  S2_20
REMARK    5  A    between atoms: S2_20  and  N3_23
REMARK    6  A    between atoms: N3_23  and  C15_24
REMARK    7  A    between atoms: N3_23  and  C17_26
REMARK    8  A    between atoms: C15_24  and  C16_25
REMARK    9  A    between atoms: C17_26  and  C18_27
REMARK                            x       y       z     vdW  Elec       q    Type
REMARK                         _______ _______ _______ _____ _____    ______ ____
ROOT
ATOM      1 CL1  UNL     1     153.081 163.858 163.474  0.00  0.00    +0.000 Cl
ATOM      2  C1  UNL     1     151.952 163.943 164.783  0.00  0.00    +0.000 A 
ATOM      3  C2  UNL     1     151.803 162.945 165.697  0.00  0.00    +0.000 A 
ATOM      4  C13 UNL     1     150.910 163.011 166.733  0.00  0.00    +0.000 A 
ATOM      5  C14 UNL     1     150.100 164.146 166.887  0.00  0.00    +0.000 A 
ATOM      6  C19 UNL     1     150.256 165.142 165.968  0.00  0.00    +0.000 A 
ATOM      7  C20 UNL     1     151.166 165.077 164.910  0.00  0.00    +0.000 A 
ENDROOT
BRANCH   3   8
ATOM      8  C3  UNL     1     152.640 161.728 165.573  0.00  0.00    +0.000 C 
ATOM      9  O1  UNL     1     152.130 160.814 164.932  0.00  0.00    +0.000 OA
ATOM     10  N1  UNL     1     153.908 161.670 166.155  0.00  0.00    +0.000 N 
ATOM     11  H1  UNL     1     154.218 162.554 166.679  0.00  0.00    +0.000 HD
BRANCH  10  12
ATOM     12  C4  UNL     1     154.785 160.578 166.123  0.00  0.00    +0.000 A 
ATOM     13  C5  UNL     1     154.956 159.383 166.672  0.00  0.00    +0.000 A 
ATOM     14  C7  UNL     1     155.952 158.564 166.287  0.00  0.00    +0.000 A 
ATOM     15  C8  UNL     1     156.797 159.016 165.296  0.00  0.00    +0.000 A 
ATOM     16  S1  UNL     1     156.168 160.605 164.915  0.00  0.00    +0.000 S 
ATOM     17  C9  UNL     1     157.930 158.190 164.795  0.00  0.00    +0.000 C 
ATOM     18  C10 UNL     1     157.516 156.757 164.559  0.00  0.00    +0.000 C 
ATOM     19  C11 UNL     1     156.349 156.353 165.430  0.00  0.00    +0.000 C 
ATOM     20  C12 UNL     1     156.378 157.157 166.733  0.00  0.00    +0.000 C 
BRANCH  13  21
ATOM     21  C6  UNL     1     154.085 158.928 167.783  0.00  0.00    +0.000 C 
ATOM     22  N2  UNL     1     153.392 158.546 168.663  0.00  0.00    +0.000 NA
ENDBRANCH  13  21
ENDBRANCH  10  12
ENDBRANCH   3   8
BRANCH   5  23
ATOM     23  S2  UNL     1     148.975 164.249 168.177  0.00  0.00    +0.000 S 
ATOM     24  O2  UNL     1     149.253 163.135 169.181  0.00  0.00    +0.000 OA
ATOM     25  O3  UNL     1     149.186 165.531 168.934  0.00  0.00    +0.000 OA
BRANCH  23  26
ATOM     26  N3  UNL     1     147.353 164.146 167.728  0.00  0.00    +0.000 NA
BRANCH  26  27
ATOM     27  C15 UNL     1     146.802 162.868 167.553  0.00  0.00    +0.000 C 
ATOM     28  C16 UNL     1     145.836 162.423 168.612  0.00  0.00    +0.000 C 
ENDBRANCH  26  27
BRANCH  26  29
ATOM     29  C17 UNL     1     146.829 165.213 166.968  0.00  0.00    +0.000 C 
ATOM     30  C18 UNL     1     146.131 164.742 165.711  0.00  0.00    +0.000 C 
ENDBRANCH  26  29
ENDBRANCH  23  26
ENDBRANCH   5  23
TORSDOF 7
ENDMDL
MODEL 9
REMARK VINA RESULT:      -5.5      6.635      9.723
REMARK  Name = ./3D_structures\o7_MMV1634384_3D.pdb
REMARK  9 active torsions:
REMARK  status: ('A' for Active; 'I' for Inactive)
REMARK    1  A    between atoms: C2_3  and  C3_4
REMARK    2  A    between atoms: N1_6  and  C4_7
REMARK    3  A    between atoms: C5_8  and  C6_9
REMARK    4  A    between atoms: C14_19  and  S2_20
REMARK    5  A    between atoms: S2_20  and  N3_23
REMARK    6  A    between atoms: N3_23  and  C15_24
REMARK    7  A    between atoms: N3_23  and  C17_26
REMARK    8  A    between atoms: C15_24  and  C16_25
REMARK    9  A    between atoms: C17_26  and  C18_27
REMARK                            x       y       z     vdW  Elec       q    Type
REMARK                         _______ _______ _______ _____ _____    ______ ____
ROOT
ATOM      1 CL1  UNL     1     159.896 163.352 170.794  0.00  0.00    +0.000 Cl
ATOM      2  C1  UNL     1     161.402 162.918 170.060  0.00  0.00    +0.000 A 
ATOM      3  C2  UNL     1     161.499 162.005 169.055  0.00  0.00    +0.000 A 
ATOM      4  C13 UNL     1     162.691 161.661 168.474  0.00  0.00    +0.000 A 
ATOM      5  C14 UNL     1     163.882 162.261 168.911  0.00  0.00    +0.000 A 
ATOM      6  C19 UNL     1     163.775 163.176 169.917  0.00  0.00    +0.000 A 
ATOM      7  C20 UNL     1     162.561 163.528 170.512  0.00  0.00    +0.000 A 
ENDROOT
BRANCH   3   8
ATOM      8  C3  UNL     1     160.266 161.348 168.562  0.00  0.00    +0.000 C 
ATOM      9  O1  UNL     1     159.482 162.092 167.981  0.00  0.00    +0.000 OA
ATOM     10  N1  UNL     1     160.054 159.983 168.763  0.00  0.00    +0.000 N 
ATOM     11  H1  UNL     1     160.836 159.464 169.284  0.00  0.00    +0.000 HD
BRANCH  10  12
ATOM     12  C4  UNL     1     158.929 159.250 168.361  0.00  0.00    +0.000 A 
ATOM     13  C5  UNL     1     157.869 158.638 168.870  0.00  0.00    +0.000 A 
ATOM     14  C7  UNL     1     156.928 158.083 168.083  0.00  0.00    +0.000 A 
ATOM     15  C8  UNL     1     157.109 158.171 166.720  0.00  0.00    +0.000 A 
ATOM     16  S1  UNL     1     158.618 159.046 166.563  0.00  0.00    +0.000 S 
ATOM     17  C9  UNL     1     156.129 157.591 165.760  0.00  0.00    +0.000 C 
ATOM     18  C10 UNL     1     154.706 157.912 166.152  0.00  0.00    +0.000 C 
ATOM     19  C11 UNL     1     154.566 158.145 167.638  0.00  0.00    +0.000 C 
ATOM     20  C12 UNL     1     155.623 157.330 168.388  0.00  0.00    +0.000 C 
BRANCH  13  21
ATOM     21  C6  UNL     1     157.711 158.488 170.337  0.00  0.00    +0.000 C 
ATOM     22  N2  UNL     1     157.606 158.366 171.510  0.00  0.00    +0.000 NA
ENDBRANCH  13  21
ENDBRANCH  10  12
ENDBRANCH   3   8
BRANCH   5  23
ATOM     23  S2  UNL     1     165.383 161.844 168.197  0.00  0.00    +0.000 S 
ATOM     24  O2  UNL     1     165.257 161.905 166.679  0.00  0.00    +0.000 OA
ATOM     25  O3  UNL     1     166.420 162.874 168.554  0.00  0.00    +0.000 OA
BRANCH  23  26
ATOM     26  N3  UNL     1     165.975 160.318 168.604  0.00  0.00    +0.000 NA
BRANCH  26  27
ATOM     27  C15 UNL     1     166.285 159.436 167.559  0.00  0.00    +0.000 C 
ATOM     28  C16 UNL     1     165.293 158.335 167.318  0.00  0.00    +0.000 C 
ENDBRANCH  26  27
BRANCH  26  29
ATOM     29  C17 UNL     1     165.558 159.777 169.839  0.00  0.00    +0.000 C 
ATOM     30  C18 UNL     1     166.351 160.320 171.008  0.00  0.00    +0.000 C 
ENDBRANCH  26  29
ENDBRANCH  23  26
ENDBRANCH   5  23
TORSDOF 7
ENDMDL
