MODEL 1
REMARK VINA RESULT:      -5.4      0.000      0.000
REMARK  Name = ./3D_structures\o80_MMV1578563_3D.pdb
REMARK  2 active torsions:
REMARK  status: ('A' for Active; 'I' for Inactive)
REMARK    1  A    between atoms: C5_6  and  C6_7
REMARK    2  A    between atoms: C7_8  and  C8_9
REMARK                            x       y       z     vdW  Elec       q    Type
REMARK                         _______ _______ _______ _____ _____    ______ ____
ROOT
ATOM      1  F1  UNL     1     156.231 158.197 172.152  0.00  0.00    +0.000 F 
ATOM      2  C1  UNL     1     156.688 157.977 170.880  0.00  0.00    +0.000 A 
ATOM      3  C2  UNL     1     155.966 157.212 169.996  0.00  0.00    +0.000 A 
ATOM      4  C3  UNL     1     156.506 157.038 168.717  0.00  0.00    +0.000 A 
ATOM      5  C4  UNL     1     157.709 157.607 168.347  0.00  0.00    +0.000 A 
ATOM      6  C5  UNL     1     158.444 157.585 167.192  0.00  0.00    +0.000 A 
ATOM      7  C9  UNL     1     159.600 158.358 167.464  0.00  0.00    +0.000 A 
ATOM      8  N5  UNL     1     159.573 158.828 168.705  0.00  0.00    +0.000 N 
ATOM      9  C10 UNL     1     158.432 158.381 169.254  0.00  0.00    +0.000 A 
ATOM     10  C11 UNL     1     157.890 158.546 170.516  0.00  0.00    +0.000 A 
ATOM     11  H7  UNL     1     160.303 159.437 169.186  0.00  0.00    +0.000 HD
ENDROOT
BRANCH   6  12
ATOM     12  C6  UNL     1     158.154 156.992 165.918  0.00  0.00    +0.000 C 
ATOM     13  C7  UNL     1     158.182 155.758 165.524  0.00  0.00    +0.000 C 
BRANCH  13  14
ATOM     14  C8  UNL     1     157.833 155.383 164.120  0.00  0.00    +0.000 A 
ATOM     15  N1  UNL     1     157.893 156.111 163.021  0.00  0.00    +0.000 NA
ATOM     16  N2  UNL     1     157.487 155.369 161.996  0.00  0.00    +0.000 NA
ATOM     17  N3  UNL     1     157.182 154.185 162.480  0.00  0.00    +0.000 NA
ATOM     18  N4  UNL     1     157.392 154.179 163.792  0.00  0.00    +0.000 N 
ATOM     19  H5  UNL     1     157.214 153.335 164.384  0.00  0.00    +0.000 HD
ENDBRANCH  13  14
ENDBRANCH   6  12
TORSDOF 2
ENDMDL
MODEL 2
REMARK VINA RESULT:      -5.4     12.398     13.182
REMARK  Name = ./3D_structures\o80_MMV1578563_3D.pdb
REMARK  2 active torsions:
REMARK  status: ('A' for Active; 'I' for Inactive)
REMARK    1  A    between atoms: C5_6  and  C6_7
REMARK    2  A    between atoms: C7_8  and  C8_9
REMARK                            x       y       z     vdW  Elec       q    Type
REMARK                         _______ _______ _______ _____ _____    ______ ____
ROOT
ATOM      1  F1  UNL     1     154.642 164.158 164.461  0.00  0.00    +0.000 F 
ATOM      2  C1  UNL     1     153.358 164.420 164.858  0.00  0.00    +0.000 A 
ATOM      3  C2  UNL     1     152.660 165.478 164.328  0.00  0.00    +0.000 A 
ATOM      4  C3  UNL     1     151.353 165.673 164.790  0.00  0.00    +0.000 A 
ATOM      5  C4  UNL     1     150.780 164.844 165.734  0.00  0.00    +0.000 A 
ATOM      6  C5  UNL     1     149.555 164.822 166.348  0.00  0.00    +0.000 A 
ATOM      7  C9  UNL     1     149.598 163.721 167.238  0.00  0.00    +0.000 A 
ATOM      8  N5  UNL     1     150.771 163.105 167.173  0.00  0.00    +0.000 N 
ATOM      9  C10 UNL     1     151.499 163.774 166.265  0.00  0.00    +0.000 A 
ATOM     10  C11 UNL     1     152.790 163.590 165.802  0.00  0.00    +0.000 A 
ATOM     11  H7  UNL     1     151.088 162.250 167.724  0.00  0.00    +0.000 HD
ENDROOT
BRANCH   6  12
ATOM     12  C6  UNL     1     148.401 165.651 166.146  0.00  0.00    +0.000 C 
ATOM     13  C7  UNL     1     147.139 165.365 166.116  0.00  0.00    +0.000 C 
BRANCH  13  14
ATOM     14  C8  UNL     1     146.107 166.421 165.882  0.00  0.00    +0.000 A 
ATOM     15  N1  UNL     1     146.253 167.731 165.816  0.00  0.00    +0.000 NA
ATOM     16  N2  UNL     1     145.063 168.280 165.592  0.00  0.00    +0.000 NA
ATOM     17  N3  UNL     1     144.196 167.295 165.521  0.00  0.00    +0.000 NA
ATOM     18  N4  UNL     1     144.827 166.139 165.699  0.00  0.00    +0.000 N 
ATOM     19  H5  UNL     1     144.328 165.221 165.682  0.00  0.00    +0.000 HD
ENDBRANCH  13  14
ENDBRANCH   6  12
TORSDOF 2
ENDMDL
MODEL 3
REMARK VINA RESULT:      -5.3     14.169     15.948
REMARK  Name = ./3D_structures\o80_MMV1578563_3D.pdb
REMARK  2 active torsions:
REMARK  status: ('A' for Active; 'I' for Inactive)
REMARK    1  A    between atoms: C5_6  and  C6_7
REMARK    2  A    between atoms: C7_8  and  C8_9
REMARK                            x       y       z     vdW  Elec       q    Type
REMARK                         _______ _______ _______ _____ _____    ______ ____
ROOT
ATOM      1  F1  UNL     1     148.445 150.406 160.609  0.00  0.00    +0.000 F 
ATOM      2  C1  UNL     1     148.855 149.099 160.632  0.00  0.00    +0.000 A 
ATOM      3  C2  UNL     1     150.016 148.737 161.273  0.00  0.00    +0.000 A 
ATOM      4  C3  UNL     1     150.359 147.381 161.248  0.00  0.00    +0.000 A 
ATOM      5  C4  UNL     1     149.574 146.439 160.613  0.00  0.00    +0.000 A 
ATOM      6  C5  UNL     1     149.686 145.085 160.437  0.00  0.00    +0.000 A 
ATOM      7  C9  UNL     1     148.553 144.708 159.674  0.00  0.00    +0.000 A 
ATOM      8  N5  UNL     1     147.793 145.761 159.403  0.00  0.00    +0.000 N 
ATOM      9  C10 UNL     1     148.399 146.819 159.966  0.00  0.00    +0.000 A 
ATOM     10  C11 UNL     1     148.068 148.162 159.996  0.00  0.00    +0.000 A 
ATOM     11  H7  UNL     1     146.883 145.782 158.850  0.00  0.00    +0.000 HD
ENDROOT
BRANCH   6  12
ATOM     12  C6  UNL     1     150.664 144.162 160.936  0.00  0.00    +0.000 C 
ATOM     13  C7  UNL     1     150.978 142.963 160.560  0.00  0.00    +0.000 C 
BRANCH  13  14
ATOM     14  C8  UNL     1     152.052 142.187 161.252  0.00  0.00    +0.000 A 
ATOM     15  N1  UNL     1     153.351 142.165 161.017  0.00  0.00    +0.000 NA
ATOM     16  N2  UNL     1     153.924 141.330 161.878  0.00  0.00    +0.000 NA
ATOM     17  N3  UNL     1     152.965 140.848 162.637  0.00  0.00    +0.000 NA
ATOM     18  N4  UNL     1     151.802 141.369 162.261  0.00  0.00    +0.000 N 
ATOM     19  H5  UNL     1     150.901 141.123 162.731  0.00  0.00    +0.000 HD
ENDBRANCH  13  14
ENDBRANCH   6  12
TORSDOF 2
ENDMDL
MODEL 4
REMARK VINA RESULT:      -5.1      2.015      2.757
REMARK  Name = ./3D_structures\o80_MMV1578563_3D.pdb
REMARK  2 active torsions:
REMARK  status: ('A' for Active; 'I' for Inactive)
REMARK    1  A    between atoms: C5_6  and  C6_7
REMARK    2  A    between atoms: C7_8  and  C8_9
REMARK                            x       y       z     vdW  Elec       q    Type
REMARK                         _______ _______ _______ _____ _____    ______ ____
ROOT
ATOM      1  F1  UNL     1     156.357 159.828 173.011  0.00  0.00    +0.000 F 
ATOM      2  C1  UNL     1     156.371 159.211 171.789  0.00  0.00    +0.000 A 
ATOM      3  C2  UNL     1     157.546 158.745 171.250  0.00  0.00    +0.000 A 
ATOM      4  C3  UNL     1     157.470 158.128 169.996  0.00  0.00    +0.000 A 
ATOM      5  C4  UNL     1     156.273 157.987 169.322  0.00  0.00    +0.000 A 
ATOM      6  C5  UNL     1     155.934 157.446 168.110  0.00  0.00    +0.000 A 
ATOM      7  C9  UNL     1     154.535 157.631 167.991  0.00  0.00    +0.000 A 
ATOM      8  N5  UNL     1     154.046 158.242 169.062  0.00  0.00    +0.000 N 
ATOM      9  C10 UNL     1     155.088 158.465 169.879  0.00  0.00    +0.000 A 
ATOM     10  C11 UNL     1     155.174 159.074 171.118  0.00  0.00    +0.000 A 
ATOM     11  H7  UNL     1     153.033 158.512 169.252  0.00  0.00    +0.000 HD
ENDROOT
BRANCH   6  12
ATOM     12  C6  UNL     1     156.742 156.762 167.140  0.00  0.00    +0.000 C 
ATOM     13  C7  UNL     1     156.523 156.474 165.897  0.00  0.00    +0.000 C 
BRANCH  13  14
ATOM     14  C8  UNL     1     157.535 155.739 165.079  0.00  0.00    +0.000 A 
ATOM     15  N1  UNL     1     158.852 155.746 165.175  0.00  0.00    +0.000 NA
ATOM     16  N2  UNL     1     159.350 154.942 164.242  0.00  0.00    +0.000 NA
ATOM     17  N3  UNL     1     158.328 154.447 163.580  0.00  0.00    +0.000 NA
ATOM     18  N4  UNL     1     157.200 154.930 164.087  0.00  0.00    +0.000 N 
ATOM     19  H5  UNL     1     156.260 154.669 163.710  0.00  0.00    +0.000 HD
ENDBRANCH  13  14
ENDBRANCH   6  12
TORSDOF 2
ENDMDL
MODEL 5
REMARK VINA RESULT:      -5.1      3.736      6.822
REMARK  Name = ./3D_structures\o80_MMV1578563_3D.pdb
REMARK  2 active torsions:
REMARK  status: ('A' for Active; 'I' for Inactive)
REMARK    1  A    between atoms: C5_6  and  C6_7
REMARK    2  A    between atoms: C7_8  and  C8_9
REMARK                            x       y       z     vdW  Elec       q    Type
REMARK                         _______ _______ _______ _____ _____    ______ ____
ROOT
ATOM      1  F1  UNL     1     158.039 154.922 163.081  0.00  0.00    +0.000 F 
ATOM      2  C1  UNL     1     158.099 155.651 164.238  0.00  0.00    +0.000 A 
ATOM      3  C2  UNL     1     157.005 155.751 165.064  0.00  0.00    +0.000 A 
ATOM      4  C3  UNL     1     157.154 156.516 166.226  0.00  0.00    +0.000 A 
ATOM      5  C4  UNL     1     158.342 157.145 166.541  0.00  0.00    +0.000 A 
ATOM      6  C5  UNL     1     158.739 157.940 167.583  0.00  0.00    +0.000 A 
ATOM      7  C9  UNL     1     160.086 158.283 167.308  0.00  0.00    +0.000 A 
ATOM      8  N5  UNL     1     160.491 157.730 166.172  0.00  0.00    +0.000 N 
ATOM      9  C10 UNL     1     159.445 157.036 165.694  0.00  0.00    +0.000 A 
ATOM     10  C11 UNL     1     159.287 156.278 164.548  0.00  0.00    +0.000 A 
ATOM     11  H7  UNL     1     161.450 157.810 165.715  0.00  0.00    +0.000 HD
ENDROOT
BRANCH   6  12
ATOM     12  C6  UNL     1     158.034 158.337 168.769  0.00  0.00    +0.000 C 
ATOM     13  C7  UNL     1     158.408 158.392 170.007  0.00  0.00    +0.000 C 
BRANCH  13  14
ATOM     14  C8  UNL     1     157.473 158.843 171.083  0.00  0.00    +0.000 A 
ATOM     15  N1  UNL     1     156.731 158.123 171.902  0.00  0.00    +0.000 NA
ATOM     16  N2  UNL     1     156.055 158.945 172.697  0.00  0.00    +0.000 NA
ATOM     17  N3  UNL     1     156.392 160.169 172.356  0.00  0.00    +0.000 NA
ATOM     18  N4  UNL     1     157.269 160.121 171.359  0.00  0.00    +0.000 N 
ATOM     19  H5  UNL     1     157.673 160.984 170.928  0.00  0.00    +0.000 HD
ENDBRANCH  13  14
ENDBRANCH   6  12
TORSDOF 2
ENDMDL
MODEL 6
REMARK VINA RESULT:      -5.0      7.242      7.794
REMARK  Name = ./3D_structures\o80_MMV1578563_3D.pdb
REMARK  2 active torsions:
REMARK  status: ('A' for Active; 'I' for Inactive)
REMARK    1  A    between atoms: C5_6  and  C6_7
REMARK    2  A    between atoms: C7_8  and  C8_9
REMARK                            x       y       z     vdW  Elec       q    Type
REMARK                         _______ _______ _______ _____ _____    ______ ____
ROOT
ATOM      1  F1  UNL     1     151.463 166.218 164.205  0.00  0.00    +0.000 F 
ATOM      2  C1  UNL     1     151.863 164.960 164.568  0.00  0.00    +0.000 A 
ATOM      3  C2  UNL     1     152.937 164.359 163.956  0.00  0.00    +0.000 A 
ATOM      4  C3  UNL     1     153.276 163.072 164.389  0.00  0.00    +0.000 A 
ATOM      5  C4  UNL     1     152.572 162.426 165.386  0.00  0.00    +0.000 A 
ATOM      6  C5  UNL     1     152.688 161.193 165.972  0.00  0.00    +0.000 A 
ATOM      7  C9  UNL     1     151.641 161.127 166.925  0.00  0.00    +0.000 A 
ATOM      8  N5  UNL     1     150.932 162.248 166.926  0.00  0.00    +0.000 N 
ATOM      9  C10 UNL     1     151.484 163.046 165.998  0.00  0.00    +0.000 A 
ATOM     10  C11 UNL     1     151.156 164.318 165.563  0.00  0.00    +0.000 A 
ATOM     11  H7  UNL     1     150.089 162.484 167.534  0.00  0.00    +0.000 HD
ENDROOT
BRANCH   6  12
ATOM     12  C6  UNL     1     153.664 160.159 165.775  0.00  0.00    +0.000 C 
ATOM     13  C7  UNL     1     154.123 159.253 166.578  0.00  0.00    +0.000 C 
BRANCH  13  14
ATOM     14  C8  UNL     1     155.158 158.271 166.132  0.00  0.00    +0.000 A 
ATOM     15  N1  UNL     1     155.235 156.975 166.365  0.00  0.00    +0.000 NA
ATOM     16  N2  UNL     1     156.326 156.500 165.773  0.00  0.00    +0.000 NA
ATOM     17  N3  UNL     1     156.910 157.517 165.178  0.00  0.00    +0.000 NA
ATOM     18  N4  UNL     1     156.198 158.619 165.392  0.00  0.00    +0.000 N 
ATOM     19  H5  UNL     1     156.481 159.550 165.009  0.00  0.00    +0.000 HD
ENDBRANCH  13  14
ENDBRANCH   6  12
TORSDOF 2
ENDMDL
MODEL 7
REMARK VINA RESULT:      -5.0      6.141      7.483
REMARK  Name = ./3D_structures\o80_MMV1578563_3D.pdb
REMARK  2 active torsions:
REMARK  status: ('A' for Active; 'I' for Inactive)
REMARK    1  A    between atoms: C5_6  and  C6_7
REMARK    2  A    between atoms: C7_8  and  C8_9
REMARK                            x       y       z     vdW  Elec       q    Type
REMARK                         _______ _______ _______ _____ _____    ______ ____
ROOT
ATOM      1  F1  UNL     1     157.763 156.327 166.199  0.00  0.00    +0.000 F 
ATOM      2  C1  UNL     1     156.695 156.945 166.795  0.00  0.00    +0.000 A 
ATOM      3  C2  UNL     1     155.645 157.415 166.042  0.00  0.00    +0.000 A 
ATOM      4  C3  UNL     1     154.595 158.033 166.731  0.00  0.00    +0.000 A 
ATOM      5  C4  UNL     1     154.602 158.167 168.106  0.00  0.00    +0.000 A 
ATOM      6  C5  UNL     1     153.728 158.726 169.001  0.00  0.00    +0.000 A 
ATOM      7  C9  UNL     1     154.328 158.555 170.273  0.00  0.00    +0.000 A 
ATOM      8  N5  UNL     1     155.492 157.928 170.166  0.00  0.00    +0.000 N 
ATOM      9  C10 UNL     1     155.673 157.687 168.858  0.00  0.00    +0.000 A 
ATOM     10  C11 UNL     1     156.706 157.078 168.167  0.00  0.00    +0.000 A 
ATOM     11  H7  UNL     1     156.163 157.664 170.950  0.00  0.00    +0.000 HD
ENDROOT
BRANCH   6  12
ATOM     12  C6  UNL     1     152.436 159.315 168.792  0.00  0.00    +0.000 C 
ATOM     13  C7  UNL     1     152.092 160.492 168.375  0.00  0.00    +0.000 C 
BRANCH  13  14
ATOM     14  C8  UNL     1     150.654 160.879 168.241  0.00  0.00    +0.000 A 
ATOM     15  N1  UNL     1     149.722 160.967 169.171  0.00  0.00    +0.000 NA
ATOM     16  N2  UNL     1     148.585 161.348 168.599  0.00  0.00    +0.000 NA
ATOM     17  N3  UNL     1     148.833 161.492 167.316  0.00  0.00    +0.000 NA
ATOM     18  N4  UNL     1     150.109 161.205 167.080  0.00  0.00    +0.000 N 
ATOM     19  H5  UNL     1     150.525 161.253 166.122  0.00  0.00    +0.000 HD
ENDBRANCH  13  14
ENDBRANCH   6  12
TORSDOF 2
ENDMDL
MODEL 8
REMARK VINA RESULT:      -5.0     12.369     13.304
REMARK  Name = ./3D_structures\o80_MMV1578563_3D.pdb
REMARK  2 active torsions:
REMARK  status: ('A' for Active; 'I' for Inactive)
REMARK    1  A    between atoms: C5_6  and  C6_7
REMARK    2  A    between atoms: C7_8  and  C8_9
REMARK                            x       y       z     vdW  Elec       q    Type
REMARK                         _______ _______ _______ _____ _____    ______ ____
ROOT
ATOM      1  F1  UNL     1     151.948 164.839 172.478  0.00  0.00    +0.000 F 
ATOM      2  C1  UNL     1     151.012 164.840 171.478  0.00  0.00    +0.000 A 
ATOM      3  C2  UNL     1     150.113 165.873 171.358  0.00  0.00    +0.000 A 
ATOM      4  C3  UNL     1     149.191 165.794 170.308  0.00  0.00    +0.000 A 
ATOM      5  C4  UNL     1     149.177 164.731 169.425  0.00  0.00    +0.000 A 
ATOM      6  C5  UNL     1     148.394 164.414 168.347  0.00  0.00    +0.000 A 
ATOM      7  C9  UNL     1     148.883 163.171 167.876  0.00  0.00    +0.000 A 
ATOM      8  N5  UNL     1     149.904 162.754 168.614  0.00  0.00    +0.000 N 
ATOM      9  C10 UNL     1     150.094 163.690 169.559  0.00  0.00    +0.000 A 
ATOM     10  C11 UNL     1     151.001 163.777 170.600  0.00  0.00    +0.000 A 
ATOM     11  H7  UNL     1     150.469 161.859 168.497  0.00  0.00    +0.000 HD
ENDROOT
BRANCH   6  12
ATOM     12  C6  UNL     1     147.333 165.151 167.722  0.00  0.00    +0.000 C 
ATOM     13  C7  UNL     1     147.183 165.566 166.504  0.00  0.00    +0.000 C 
BRANCH  13  14
ATOM     14  C8  UNL     1     145.968 166.331 166.088  0.00  0.00    +0.000 A 
ATOM     15  N1  UNL     1     145.845 167.613 165.801  0.00  0.00    +0.000 NA
ATOM     16  N2  UNL     1     144.580 167.858 165.478  0.00  0.00    +0.000 NA
ATOM     17  N3  UNL     1     143.935 166.715 165.570  0.00  0.00    +0.000 NA
ATOM     18  N4  UNL     1     144.782 165.762 165.945  0.00  0.00    +0.000 N 
ATOM     19  H5  UNL     1     144.482 164.770 166.081  0.00  0.00    +0.000 HD
ENDBRANCH  13  14
ENDBRANCH   6  12
TORSDOF 2
ENDMDL
MODEL 9
REMARK VINA RESULT:      -4.9      5.982      7.016
REMARK  Name = ./3D_structures\o80_MMV1578563_3D.pdb
REMARK  2 active torsions:
REMARK  status: ('A' for Active; 'I' for Inactive)
REMARK    1  A    between atoms: C5_6  and  C6_7
REMARK    2  A    between atoms: C7_8  and  C8_9
REMARK                            x       y       z     vdW  Elec       q    Type
REMARK                         _______ _______ _______ _____ _____    ______ ____
ROOT
ATOM      1  F1  UNL     1     158.518 156.063 165.722  0.00  0.00    +0.000 F 
ATOM      2  C1  UNL     1     157.498 156.954 165.921  0.00  0.00    +0.000 A 
ATOM      3  C2  UNL     1     157.374 158.070 165.128  0.00  0.00    +0.000 A 
ATOM      4  C3  UNL     1     156.303 158.928 165.401  0.00  0.00    +0.000 A 
ATOM      5  C4  UNL     1     155.402 158.673 166.417  0.00  0.00    +0.000 A 
ATOM      6  C5  UNL     1     154.301 159.339 166.887  0.00  0.00    +0.000 A 
ATOM      7  C9  UNL     1     153.821 158.560 167.968  0.00  0.00    +0.000 A 
ATOM      8  N5  UNL     1     154.575 157.484 168.148  0.00  0.00    +0.000 N 
ATOM      9  C10 UNL     1     155.539 157.538 167.214  0.00  0.00    +0.000 A 
ATOM     10  C11 UNL     1     156.602 156.697 166.938  0.00  0.00    +0.000 A 
ATOM     11  H7  UNL     1     154.456 156.720 168.881  0.00  0.00    +0.000 HD
ENDROOT
BRANCH   6  12
ATOM     12  C6  UNL     1     153.664 160.533 166.408  0.00  0.00    +0.000 C 
ATOM     13  C7  UNL     1     152.932 160.750 165.362  0.00  0.00    +0.000 C 
BRANCH  13  14
ATOM     14  C8  UNL     1     152.374 162.106 165.072  0.00  0.00    +0.000 A 
ATOM     15  N1  UNL     1     151.898 163.010 165.907  0.00  0.00    +0.000 NA
ATOM     16  N2  UNL     1     151.509 164.071 165.208  0.00  0.00    +0.000 NA
ATOM     17  N3  UNL     1     151.754 163.806 163.944  0.00  0.00    +0.000 NA
ATOM     18  N4  UNL     1     152.289 162.594 163.845  0.00  0.00    +0.000 N 
ATOM     19  H5  UNL     1     152.564 162.177 162.926  0.00  0.00    +0.000 HD
ENDBRANCH  13  14
ENDBRANCH   6  12
TORSDOF 2
ENDMDL
