MODEL 1
REMARK VINA RESULT:      -7.2      0.000      0.000
REMARK  Name = ./3D_structures\o11_MMV1581034_3D.pdb
REMARK  6 active torsions:
REMARK  status: ('A' for Active; 'I' for Inactive)
REMARK    1  A    between atoms: C2_3  and  S1_4
REMARK    2  A    between atoms: S1_4  and  C3_7
REMARK    3  A    between atoms: C8_13  and  O4_29
REMARK    4  A    between atoms: C9_14  and  N2_15
REMARK    5  A    between atoms: N3_18  and  C11_19
REMARK    6  A    between atoms: C12_20  and  C17_26
REMARK                            x       y       z     vdW  Elec       q    Type
REMARK                         _______ _______ _______ _____ _____    ______ ____
ROOT
ATOM      1 CL1  UNL     1     151.373 166.267 164.589  0.00  0.00    +0.000 Cl
ATOM      2  C1  UNL     1     151.778 164.564 164.788  0.00  0.00    +0.000 A 
ATOM      3  C2  UNL     1     151.304 163.921 165.907  0.00  0.00    +0.000 A 
ATOM      4  C8  UNL     1     151.624 162.579 166.065  0.00  0.00    +0.000 A 
ATOM      5  C9  UNL     1     152.402 161.876 165.130  0.00  0.00    +0.000 A 
ATOM      6  C18 UNL     1     152.853 162.558 164.030  0.00  0.00    +0.000 A 
ATOM      7  C19 UNL     1     152.544 163.911 163.850  0.00  0.00    +0.000 A 
ENDROOT
BRANCH   5   8
ATOM      8  N2  UNL     1     152.673 160.524 165.371  0.00  0.00    +0.000 N 
ATOM      9  C10 UNL     1     153.826 159.963 165.987  0.00  0.00    +0.000 C 
ATOM     10  O3  UNL     1     154.709 160.756 166.363  0.00  0.00    +0.000 OA
ATOM     11  N3  UNL     1     153.962 158.563 166.166  0.00  0.00    +0.000 N 
ATOM     12  H11 UNL     1     151.963 159.783 165.078  0.00  0.00    +0.000 HD
ATOM     13  H12 UNL     1     153.168 157.946 165.821  0.00  0.00    +0.000 HD
BRANCH  11  14
ATOM     14  C11 UNL     1     155.085 157.964 166.771  0.00  0.00    +0.000 A 
ATOM     15  C12 UNL     1     154.984 157.636 168.145  0.00  0.00    +0.000 A 
ATOM     16  C13 UNL     1     155.988 157.052 168.861  0.00  0.00    +0.000 A 
ATOM     17  C14 UNL     1     157.163 156.761 168.234  0.00  0.00    +0.000 A 
ATOM     18  C15 UNL     1     157.287 157.067 166.911  0.00  0.00    +0.000 A 
ATOM     19  C16 UNL     1     156.263 157.663 166.181  0.00  0.00    +0.000 A 
ATOM     20  F1  UNL     1     155.818 156.763 170.185  0.00  0.00    +0.000 F 
ATOM     21  C17 UNL     1     153.707 157.942 168.864  0.00  0.00    +0.000 C 
ENDBRANCH  11  14
ENDBRANCH   5   8
BRANCH   3  22
ATOM     22  S1  UNL     1     150.336 164.725 167.108  0.00  0.00    +0.000 S 
ATOM     23  O1  UNL     1     150.827 166.122 167.363  0.00  0.00    +0.000 OA
ATOM     24  O2  UNL     1     150.418 164.002 168.444  0.00  0.00    +0.000 OA
BRANCH  22  25
ATOM     25  C3  UNL     1     148.630 164.810 166.673  0.00  0.00    +0.000 C 
ATOM     26  C4  UNL     1     148.168 166.204 166.342  0.00  0.00    +0.000 C 
ATOM     27  N1  UNL     1     146.922 166.093 165.592  0.00  0.00    +0.000 NA
ATOM     28  C5  UNL     1     146.261 164.836 165.766  0.00  0.00    +0.000 C 
ATOM     29  C6  UNL     1     146.299 164.351 167.204  0.00  0.00    +0.000 C 
ATOM     30  C7  UNL     1     147.721 164.239 167.710  0.00  0.00    +0.000 C 
ATOM     31  H4  UNL     1     147.171 166.226 164.586  0.00  0.00    +0.000 HD
ENDBRANCH  22  25
ENDBRANCH   3  22
BRANCH   4  32
ATOM     32  O4  UNL     1     151.142 161.979 167.175  0.00  0.00    +0.000 OA
ATOM     33  H21 UNL     1     151.258 162.277 168.097  0.00  0.00    +0.000 HD
ENDBRANCH   4  32
TORSDOF 5
ENDMDL
MODEL 2
REMARK VINA RESULT:      -6.8      4.217      9.412
REMARK  Name = ./3D_structures\o11_MMV1581034_3D.pdb
REMARK  6 active torsions:
REMARK  status: ('A' for Active; 'I' for Inactive)
REMARK    1  A    between atoms: C2_3  and  S1_4
REMARK    2  A    between atoms: S1_4  and  C3_7
REMARK    3  A    between atoms: C8_13  and  O4_29
REMARK    4  A    between atoms: C9_14  and  N2_15
REMARK    5  A    between atoms: N3_18  and  C11_19
REMARK    6  A    between atoms: C12_20  and  C17_26
REMARK                            x       y       z     vdW  Elec       q    Type
REMARK                         _______ _______ _______ _____ _____    ______ ____
ROOT
ATOM      1 CL1  UNL     1     154.882 157.992 165.863  0.00  0.00    +0.000 Cl
ATOM      2  C1  UNL     1     153.987 159.413 166.397  0.00  0.00    +0.000 A 
ATOM      3  C2  UNL     1     153.689 159.515 167.735  0.00  0.00    +0.000 A 
ATOM      4  C8  UNL     1     152.983 160.635 168.156  0.00  0.00    +0.000 A 
ATOM      5  C9  UNL     1     152.573 161.643 167.268  0.00  0.00    +0.000 A 
ATOM      6  C18 UNL     1     152.892 161.499 165.943  0.00  0.00    +0.000 A 
ATOM      7  C19 UNL     1     153.603 160.379 165.496  0.00  0.00    +0.000 A 
ENDROOT
BRANCH   5   8
ATOM      8  N2  UNL     1     151.865 162.737 167.782  0.00  0.00    +0.000 N 
ATOM      9  C10 UNL     1     150.457 162.873 167.926  0.00  0.00    +0.000 C 
ATOM     10  O3  UNL     1     149.755 161.914 167.555  0.00  0.00    +0.000 OA
ATOM     11  N3  UNL     1     149.879 164.048 168.469  0.00  0.00    +0.000 N 
ATOM     12  H11 UNL     1     152.397 163.597 168.122  0.00  0.00    +0.000 HD
ATOM     13  H12 UNL     1     150.540 164.827 168.765  0.00  0.00    +0.000 HD
BRANCH  11  14
ATOM     14  C11 UNL     1     148.490 164.227 168.630  0.00  0.00    +0.000 A 
ATOM     15  C12 UNL     1     147.828 165.046 167.682  0.00  0.00    +0.000 A 
ATOM     16  C13 UNL     1     146.490 165.307 167.711  0.00  0.00    +0.000 A 
ATOM     17  C14 UNL     1     145.731 164.757 168.701  0.00  0.00    +0.000 A 
ATOM     18  C15 UNL     1     146.343 163.965 169.627  0.00  0.00    +0.000 A 
ATOM     19  C16 UNL     1     147.709 163.699 169.597  0.00  0.00    +0.000 A 
ATOM     20  F1  UNL     1     145.919 166.106 166.762  0.00  0.00    +0.000 F 
ATOM     21  C17 UNL     1     148.632 165.665 166.582  0.00  0.00    +0.000 C 
ENDBRANCH  11  14
ENDBRANCH   5   8
BRANCH   3  22
ATOM     22  S1  UNL     1     154.162 158.307 168.893  0.00  0.00    +0.000 S 
ATOM     23  O1  UNL     1     154.031 156.922 168.325  0.00  0.00    +0.000 OA
ATOM     24  O2  UNL     1     153.257 158.345 170.117  0.00  0.00    +0.000 OA
BRANCH  22  25
ATOM     25  C3  UNL     1     155.814 158.513 169.469  0.00  0.00    +0.000 C 
ATOM     26  C4  UNL     1     156.763 157.469 168.945  0.00  0.00    +0.000 C 
ATOM     27  N1  UNL     1     158.120 157.978 169.109  0.00  0.00    +0.000 NA
ATOM     28  C5  UNL     1     158.223 159.027 170.077  0.00  0.00    +0.000 C 
ATOM     29  C6  UNL     1     157.383 158.762 171.314  0.00  0.00    +0.000 C 
ATOM     30  C7  UNL     1     155.926 158.557 170.957  0.00  0.00    +0.000 C 
ATOM     31  H4  UNL     1     158.417 158.332 168.171  0.00  0.00    +0.000 HD
ENDBRANCH  22  25
ENDBRANCH   3  22
BRANCH   4  32
ATOM     32  O4  UNL     1     152.707 160.702 169.476  0.00  0.00    +0.000 OA
ATOM     33  H21 UNL     1     151.841 160.894 169.884  0.00  0.00    +0.000 HD
ENDBRANCH   4  32
TORSDOF 5
ENDMDL
MODEL 3
REMARK VINA RESULT:      -6.8      2.834      3.968
REMARK  Name = ./3D_structures\o11_MMV1581034_3D.pdb
REMARK  6 active torsions:
REMARK  status: ('A' for Active; 'I' for Inactive)
REMARK    1  A    between atoms: C2_3  and  S1_4
REMARK    2  A    between atoms: S1_4  and  C3_7
REMARK    3  A    between atoms: C8_13  and  O4_29
REMARK    4  A    between atoms: C9_14  and  N2_15
REMARK    5  A    between atoms: N3_18  and  C11_19
REMARK    6  A    between atoms: C12_20  and  C17_26
REMARK                            x       y       z     vdW  Elec       q    Type
REMARK                         _______ _______ _______ _____ _____    ______ ____
ROOT
ATOM      1 CL1  UNL     1     146.266 166.054 166.655  0.00  0.00    +0.000 Cl
ATOM      2  C1  UNL     1     147.769 165.234 167.070  0.00  0.00    +0.000 A 
ATOM      3  C2  UNL     1     147.725 164.278 168.057  0.00  0.00    +0.000 A 
ATOM      4  C8  UNL     1     148.910 163.632 168.385  0.00  0.00    +0.000 A 
ATOM      5  C9  UNL     1     150.127 163.923 167.746  0.00  0.00    +0.000 A 
ATOM      6  C18 UNL     1     150.124 164.883 166.768  0.00  0.00    +0.000 A 
ATOM      7  C19 UNL     1     148.942 165.547 166.421  0.00  0.00    +0.000 A 
ENDROOT
BRANCH   5   8
ATOM      8  N2  UNL     1     151.271 163.220 168.142  0.00  0.00    +0.000 N 
ATOM      9  C10 UNL     1     151.871 162.101 167.501  0.00  0.00    +0.000 C 
ATOM     10  O3  UNL     1     151.325 161.684 166.462  0.00  0.00    +0.000 OA
ATOM     11  N3  UNL     1     153.039 161.488 168.021  0.00  0.00    +0.000 N 
ATOM     12  H11 UNL     1     151.796 163.518 169.022  0.00  0.00    +0.000 HD
ATOM     13  H12 UNL     1     153.451 161.898 168.912  0.00  0.00    +0.000 HD
BRANCH  11  14
ATOM     14  C11 UNL     1     153.666 160.379 167.420  0.00  0.00    +0.000 A 
ATOM     15  C12 UNL     1     153.626 159.150 168.125  0.00  0.00    +0.000 A 
ATOM     16  C13 UNL     1     154.188 157.995 167.667  0.00  0.00    +0.000 A 
ATOM     17  C14 UNL     1     154.829 158.005 166.465  0.00  0.00    +0.000 A 
ATOM     18  C15 UNL     1     154.884 159.174 165.765  0.00  0.00    +0.000 A 
ATOM     19  C16 UNL     1     154.310 160.353 166.233  0.00  0.00    +0.000 A 
ATOM     20  F1  UNL     1     154.109 156.847 168.402  0.00  0.00    +0.000 F 
ATOM     21  C17 UNL     1     152.929 159.106 169.450  0.00  0.00    +0.000 C 
ENDBRANCH  11  14
ENDBRANCH   5   8
BRANCH   3  22
ATOM     22  S1  UNL     1     146.256 163.865 168.892  0.00  0.00    +0.000 S 
ATOM     23  O1  UNL     1     145.449 165.089 169.222  0.00  0.00    +0.000 OA
ATOM     24  O2  UNL     1     146.560 163.193 170.224  0.00  0.00    +0.000 OA
BRANCH  22  25
ATOM     25  C3  UNL     1     145.233 162.759 167.980  0.00  0.00    +0.000 C 
ATOM     26  C4  UNL     1     145.839 162.324 166.673  0.00  0.00    +0.000 C 
ATOM     27  N1  UNL     1     145.146 161.117 166.239  0.00  0.00    +0.000 NA
ATOM     28  C5  UNL     1     143.866 160.942 166.854  0.00  0.00    +0.000 C 
ATOM     29  C6  UNL     1     143.085 162.240 166.955  0.00  0.00    +0.000 C 
ATOM     30  C7  UNL     1     143.863 163.292 167.718  0.00  0.00    +0.000 C 
ATOM     31  H4  UNL     1     145.770 160.315 166.486  0.00  0.00    +0.000 HD
ENDBRANCH  22  25
ENDBRANCH   3  22
BRANCH   4  32
ATOM     32  O4  UNL     1     148.829 162.700 169.359  0.00  0.00    +0.000 OA
ATOM     33  H21 UNL     1     149.573 162.290 169.839  0.00  0.00    +0.000 HD
ENDBRANCH   4  32
TORSDOF 5
ENDMDL
MODEL 4
REMARK VINA RESULT:      -6.5      7.522      9.193
REMARK  Name = ./3D_structures\o11_MMV1581034_3D.pdb
REMARK  6 active torsions:
REMARK  status: ('A' for Active; 'I' for Inactive)
REMARK    1  A    between atoms: C2_3  and  S1_4
REMARK    2  A    between atoms: S1_4  and  C3_7
REMARK    3  A    between atoms: C8_13  and  O4_29
REMARK    4  A    between atoms: C9_14  and  N2_15
REMARK    5  A    between atoms: N3_18  and  C11_19
REMARK    6  A    between atoms: C12_20  and  C17_26
REMARK                            x       y       z     vdW  Elec       q    Type
REMARK                         _______ _______ _______ _____ _____    ______ ____
ROOT
ATOM      1 CL1  UNL     1     158.354 160.689 166.236  0.00  0.00    +0.000 Cl
ATOM      2  C1  UNL     1     158.047 159.131 165.473  0.00  0.00    +0.000 A 
ATOM      3  C2  UNL     1     156.970 158.402 165.919  0.00  0.00    +0.000 A 
ATOM      4  C8  UNL     1     156.728 157.174 165.318  0.00  0.00    +0.000 A 
ATOM      5  C9  UNL     1     157.539 156.668 164.288  0.00  0.00    +0.000 A 
ATOM      6  C18 UNL     1     158.601 157.429 163.876  0.00  0.00    +0.000 A 
ATOM      7  C19 UNL     1     158.864 158.670 164.467  0.00  0.00    +0.000 A 
ENDROOT
BRANCH   5   8
ATOM      8  N2  UNL     1     157.218 155.419 163.740  0.00  0.00    +0.000 N 
ATOM      9  C10 UNL     1     157.657 154.139 164.176  0.00  0.00    +0.000 C 
ATOM     10  O3  UNL     1     158.418 154.106 165.160  0.00  0.00    +0.000 OA
ATOM     11  N3  UNL     1     157.245 152.952 163.517  0.00  0.00    +0.000 N 
ATOM     12  H11 UNL     1     156.570 155.365 162.894  0.00  0.00    +0.000 HD
ATOM     13  H12 UNL     1     156.594 153.056 162.683  0.00  0.00    +0.000 HD
BRANCH  11  14
ATOM     14  C11 UNL     1     157.655 151.663 163.913  0.00  0.00    +0.000 A 
ATOM     15  C12 UNL     1     156.815 150.578 163.558  0.00  0.00    +0.000 A 
ATOM     16  C13 UNL     1     157.084 149.279 163.872  0.00  0.00    +0.000 A 
ATOM     17  C14 UNL     1     158.220 148.988 164.567  0.00  0.00    +0.000 A 
ATOM     18  C15 UNL     1     159.046 150.014 164.922  0.00  0.00    +0.000 A 
ATOM     19  C16 UNL     1     158.771 151.340 164.602  0.00  0.00    +0.000 A 
ATOM     20  F1  UNL     1     156.227 148.284 163.496  0.00  0.00    +0.000 F 
ATOM     21  C17 UNL     1     155.559 150.863 162.795  0.00  0.00    +0.000 C 
ENDBRANCH  11  14
ENDBRANCH   5   8
BRANCH   3  22
ATOM     22  S1  UNL     1     155.922 158.963 167.189  0.00  0.00    +0.000 S 
ATOM     23  O1  UNL     1     154.582 158.284 167.134  0.00  0.00    +0.000 OA
ATOM     24  O2  UNL     1     155.644 160.452 167.046  0.00  0.00    +0.000 OA
BRANCH  22  25
ATOM     25  C3  UNL     1     156.599 158.718 168.797  0.00  0.00    +0.000 C 
ATOM     26  C4  UNL     1     157.916 157.989 168.787  0.00  0.00    +0.000 C 
ATOM     27  N1  UNL     1     158.571 158.235 170.066  0.00  0.00    +0.000 NA
ATOM     28  C5  UNL     1     157.673 158.660 171.095  0.00  0.00    +0.000 C 
ATOM     29  C6  UNL     1     156.361 157.896 171.077  0.00  0.00    +0.000 C 
ATOM     30  C7  UNL     1     155.672 158.017 169.735  0.00  0.00    +0.000 C 
ATOM     31  H4  UNL     1     159.287 158.976 169.893  0.00  0.00    +0.000 HD
ENDBRANCH  22  25
ENDBRANCH   3  22
BRANCH   4  32
ATOM     32  O4  UNL     1     155.662 156.485 165.781  0.00  0.00    +0.000 OA
ATOM     33  H21 UNL     1     155.598 156.010 166.631  0.00  0.00    +0.000 HD
ENDBRANCH   4  32
TORSDOF 5
ENDMDL
MODEL 5
REMARK VINA RESULT:      -6.4      3.999      4.730
REMARK  Name = ./3D_structures\o11_MMV1581034_3D.pdb
REMARK  6 active torsions:
REMARK  status: ('A' for Active; 'I' for Inactive)
REMARK    1  A    between atoms: C2_3  and  S1_4
REMARK    2  A    between atoms: S1_4  and  C3_7
REMARK    3  A    between atoms: C8_13  and  O4_29
REMARK    4  A    between atoms: C9_14  and  N2_15
REMARK    5  A    between atoms: N3_18  and  C11_19
REMARK    6  A    between atoms: C12_20  and  C17_26
REMARK                            x       y       z     vdW  Elec       q    Type
REMARK                         _______ _______ _______ _____ _____    ______ ____
ROOT
ATOM      1 CL1  UNL     1     149.978 167.112 171.187  0.00  0.00    +0.000 Cl
ATOM      2  C1  UNL     1     150.662 165.507 171.425  0.00  0.00    +0.000 A 
ATOM      3  C2  UNL     1     150.545 164.603 170.396  0.00  0.00    +0.000 A 
ATOM      4  C8  UNL     1     151.084 163.336 170.584  0.00  0.00    +0.000 A 
ATOM      5  C9  UNL     1     151.733 162.964 171.773  0.00  0.00    +0.000 A 
ATOM      6  C18 UNL     1     151.826 163.898 172.772  0.00  0.00    +0.000 A 
ATOM      7  C19 UNL     1     151.290 165.180 172.605  0.00  0.00    +0.000 A 
ENDROOT
BRANCH   5   8
ATOM      8  N2  UNL     1     152.247 161.665 171.873  0.00  0.00    +0.000 N 
ATOM      9  C10 UNL     1     153.543 161.211 171.502  0.00  0.00    +0.000 C 
ATOM     10  O3  UNL     1     154.325 162.056 171.029  0.00  0.00    +0.000 OA
ATOM     11  N3  UNL     1     153.925 159.855 171.663  0.00  0.00    +0.000 N 
ATOM     12  H11 UNL     1     151.637 160.885 172.270  0.00  0.00    +0.000 HD
ATOM     13  H12 UNL     1     153.205 159.188 172.074  0.00  0.00    +0.000 HD
BRANCH  11  14
ATOM     14  C11 UNL     1     155.196 159.360 171.309  0.00  0.00    +0.000 A 
ATOM     15  C12 UNL     1     155.259 158.452 170.223  0.00  0.00    +0.000 A 
ATOM     16  C13 UNL     1     156.417 157.894 169.768  0.00  0.00    +0.000 A 
ATOM     17  C14 UNL     1     157.591 158.216 170.381  0.00  0.00    +0.000 A 
ATOM     18  C15 UNL     1     157.559 159.087 171.430  0.00  0.00    +0.000 A 
ATOM     19  C16 UNL     1     156.377 159.657 171.894  0.00  0.00    +0.000 A 
ATOM     20  F1  UNL     1     156.401 157.025 168.714  0.00  0.00    +0.000 F 
ATOM     21  C17 UNL     1     153.987 158.077 169.527  0.00  0.00    +0.000 C 
ENDBRANCH  11  14
ENDBRANCH   5   8
BRANCH   3  22
ATOM     22  S1  UNL     1     149.755 164.990 168.896  0.00  0.00    +0.000 S 
ATOM     23  O1  UNL     1     150.371 164.248 167.744  0.00  0.00    +0.000 OA
ATOM     24  O2  UNL     1     149.905 166.469 168.570  0.00  0.00    +0.000 OA
BRANCH  22  25
ATOM     25  C3  UNL     1     148.028 164.642 168.917  0.00  0.00    +0.000 C 
ATOM     26  C4  UNL     1     147.321 165.195 170.126  0.00  0.00    +0.000 C 
ATOM     27  N1  UNL     1     145.895 165.241 169.826  0.00  0.00    +0.000 NA
ATOM     28  C5  UNL     1     145.510 164.379 168.751  0.00  0.00    +0.000 C 
ATOM     29  C6  UNL     1     146.205 163.030 168.806  0.00  0.00    +0.000 C 
ATOM     30  C7  UNL     1     147.711 163.187 168.802  0.00  0.00    +0.000 C 
ATOM     31  H4  UNL     1     145.678 166.233 169.580  0.00  0.00    +0.000 HD
ENDBRANCH  22  25
ENDBRANCH   3  22
BRANCH   4  32
ATOM     32  O4  UNL     1     150.950 162.474 169.553  0.00  0.00    +0.000 OA
ATOM     33  H21 UNL     1     150.118 162.213 169.115  0.00  0.00    +0.000 HD
ENDBRANCH   4  32
TORSDOF 5
ENDMDL
MODEL 6
REMARK VINA RESULT:      -6.4      2.535      3.209
REMARK  Name = ./3D_structures\o11_MMV1581034_3D.pdb
REMARK  6 active torsions:
REMARK  status: ('A' for Active; 'I' for Inactive)
REMARK    1  A    between atoms: C2_3  and  S1_4
REMARK    2  A    between atoms: S1_4  and  C3_7
REMARK    3  A    between atoms: C8_13  and  O4_29
REMARK    4  A    between atoms: C9_14  and  N2_15
REMARK    5  A    between atoms: N3_18  and  C11_19
REMARK    6  A    between atoms: C12_20  and  C17_26
REMARK                            x       y       z     vdW  Elec       q    Type
REMARK                         _______ _______ _______ _____ _____    ______ ____
ROOT
ATOM      1 CL1  UNL     1     150.867 165.761 164.930  0.00  0.00    +0.000 Cl
ATOM      2  C1  UNL     1     151.603 164.263 165.494  0.00  0.00    +0.000 A 
ATOM      3  C2  UNL     1     150.952 163.564 166.482  0.00  0.00    +0.000 A 
ATOM      4  C8  UNL     1     151.532 162.383 166.928  0.00  0.00    +0.000 A 
ATOM      5  C9  UNL     1     152.741 161.895 166.406  0.00  0.00    +0.000 A 
ATOM      6  C18 UNL     1     153.355 162.626 165.422  0.00  0.00    +0.000 A 
ATOM      7  C19 UNL     1     152.789 163.818 164.957  0.00  0.00    +0.000 A 
ENDROOT
BRANCH   5   8
ATOM      8  N2  UNL     1     153.251 160.695 166.915  0.00  0.00    +0.000 N 
ATOM      9  C10 UNL     1     154.167 160.525 167.990  0.00  0.00    +0.000 C 
ATOM     10  O3  UNL     1     154.574 161.557 168.556  0.00  0.00    +0.000 OA
ATOM     11  N3  UNL     1     154.597 159.237 168.399  0.00  0.00    +0.000 N 
ATOM     12  H11 UNL     1     152.949 159.768 166.483  0.00  0.00    +0.000 HD
ATOM     13  H12 UNL     1     154.208 158.400 167.870  0.00  0.00    +0.000 HD
BRANCH  11  14
ATOM     14  C11 UNL     1     155.502 159.021 169.457  0.00  0.00    +0.000 A 
ATOM     15  C12 UNL     1     156.828 158.656 169.112  0.00  0.00    +0.000 A 
ATOM     16  C13 UNL     1     157.810 158.417 170.027  0.00  0.00    +0.000 A 
ATOM     17  C14 UNL     1     157.518 158.530 171.354  0.00  0.00    +0.000 A 
ATOM     18  C15 UNL     1     156.250 158.879 171.714  0.00  0.00    +0.000 A 
ATOM     19  C16 UNL     1     155.247 159.123 170.779  0.00  0.00    +0.000 A 
ATOM     20  F1  UNL     1     159.067 158.070 169.621  0.00  0.00    +0.000 F 
ATOM     21  C17 UNL     1     157.181 158.523 167.663  0.00  0.00    +0.000 C 
ENDBRANCH  11  14
ENDBRANCH   5   8
BRANCH   3  22
ATOM     22  S1  UNL     1     149.452 164.105 167.179  0.00  0.00    +0.000 S 
ATOM     23  O1  UNL     1     148.512 162.957 167.417  0.00  0.00    +0.000 OA
ATOM     24  O2  UNL     1     148.726 165.052 166.234  0.00  0.00    +0.000 OA
BRANCH  22  25
ATOM     25  C3  UNL     1     149.670 164.965 168.701  0.00  0.00    +0.000 C 
ATOM     26  C4  UNL     1     148.416 165.040 169.529  0.00  0.00    +0.000 C 
ATOM     27  N1  UNL     1     148.804 165.355 170.899  0.00  0.00    +0.000 NA
ATOM     28  C5  UNL     1     150.107 165.938 171.003  0.00  0.00    +0.000 C 
ATOM     29  C6  UNL     1     150.379 166.956 169.910  0.00  0.00    +0.000 C 
ATOM     30  C7  UNL     1     150.217 166.344 168.535  0.00  0.00    +0.000 C 
ATOM     31  H4  UNL     1     148.777 164.453 171.427  0.00  0.00    +0.000 HD
ENDBRANCH  22  25
ENDBRANCH   3  22
BRANCH   4  32
ATOM     32  O4  UNL     1     150.865 161.723 167.900  0.00  0.00    +0.000 OA
ATOM     33  H21 UNL     1     150.500 162.104 168.721  0.00  0.00    +0.000 HD
ENDBRANCH   4  32
TORSDOF 5
ENDMDL
MODEL 7
REMARK VINA RESULT:      -6.4      3.539      4.365
REMARK  Name = ./3D_structures\o11_MMV1581034_3D.pdb
REMARK  6 active torsions:
REMARK  status: ('A' for Active; 'I' for Inactive)
REMARK    1  A    between atoms: C2_3  and  S1_4
REMARK    2  A    between atoms: S1_4  and  C3_7
REMARK    3  A    between atoms: C8_13  and  O4_29
REMARK    4  A    between atoms: C9_14  and  N2_15
REMARK    5  A    between atoms: N3_18  and  C11_19
REMARK    6  A    between atoms: C12_20  and  C17_26
REMARK                            x       y       z     vdW  Elec       q    Type
REMARK                         _______ _______ _______ _____ _____    ______ ____
ROOT
ATOM      1 CL1  UNL     1     146.891 164.964 170.184  0.00  0.00    +0.000 Cl
ATOM      2  C1  UNL     1     148.479 164.259 169.894  0.00  0.00    +0.000 A 
ATOM      3  C2  UNL     1     148.565 163.224 168.993  0.00  0.00    +0.000 A 
ATOM      4  C8  UNL     1     149.817 162.667 168.765  0.00  0.00    +0.000 A 
ATOM      5  C9  UNL     1     150.974 163.125 169.417  0.00  0.00    +0.000 A 
ATOM      6  C18 UNL     1     150.841 164.159 170.307  0.00  0.00    +0.000 A 
ATOM      7  C19 UNL     1     149.590 164.735 170.553  0.00  0.00    +0.000 A 
ENDROOT
BRANCH   5   8
ATOM      8  N2  UNL     1     152.194 162.504 169.123  0.00  0.00    +0.000 N 
ATOM      9  C10 UNL     1     152.963 161.655 169.965  0.00  0.00    +0.000 C 
ATOM     10  O3  UNL     1     152.512 161.426 171.103  0.00  0.00    +0.000 OA
ATOM     11  N3  UNL     1     154.190 161.093 169.528  0.00  0.00    +0.000 N 
ATOM     12  H11 UNL     1     152.644 162.652 168.167  0.00  0.00    +0.000 HD
ATOM     13  H12 UNL     1     154.514 161.332 168.543  0.00  0.00    +0.000 HD
BRANCH  11  14
ATOM     14  C11 UNL     1     154.985 160.248 170.327  0.00  0.00    +0.000 A 
ATOM     15  C12 UNL     1     155.072 158.886 169.943  0.00  0.00    +0.000 A 
ATOM     16  C13 UNL     1     155.803 157.954 170.618  0.00  0.00    +0.000 A 
ATOM     17  C14 UNL     1     156.496 158.336 171.728  0.00  0.00    +0.000 A 
ATOM     18  C15 UNL     1     156.429 159.640 172.121  0.00  0.00    +0.000 A 
ATOM     19  C16 UNL     1     155.682 160.591 171.431  0.00  0.00    +0.000 A 
ATOM     20  F1  UNL     1     155.841 156.658 170.189  0.00  0.00    +0.000 F 
ATOM     21  C17 UNL     1     154.323 158.434 168.728  0.00  0.00    +0.000 C 
ENDBRANCH  11  14
ENDBRANCH   5   8
BRANCH   3  22
ATOM     22  S1  UNL     1     147.177 162.603 168.148  0.00  0.00    +0.000 S 
ATOM     23  O1  UNL     1     146.183 161.995 169.098  0.00  0.00    +0.000 OA
ATOM     24  O2  UNL     1     147.578 161.488 167.192  0.00  0.00    +0.000 OA
BRANCH  22  25
ATOM     25  C3  UNL     1     146.348 163.827 167.191  0.00  0.00    +0.000 C 
ATOM     26  C4  UNL     1     145.449 163.250 166.131  0.00  0.00    +0.000 C 
ATOM     27  N1  UNL     1     144.512 164.291 165.725  0.00  0.00    +0.000 NA
ATOM     28  C5  UNL     1     144.952 165.613 166.050  0.00  0.00    +0.000 C 
ATOM     29  C6  UNL     1     146.434 165.816 165.788  0.00  0.00    +0.000 C 
ATOM     30  C7  UNL     1     147.270 164.812 166.552  0.00  0.00    +0.000 C 
ATOM     31  H4  UNL     1     143.613 164.085 166.217  0.00  0.00    +0.000 HD
ENDBRANCH  22  25
ENDBRANCH   3  22
BRANCH   4  32
ATOM     32  O4  UNL     1     149.863 161.653 167.874  0.00  0.00    +0.000 OA
ATOM     33  H21 UNL     1     149.211 161.460 167.174  0.00  0.00    +0.000 HD
ENDBRANCH   4  32
TORSDOF 5
ENDMDL
MODEL 8
REMARK VINA RESULT:      -6.4      2.079      2.364
REMARK  Name = ./3D_structures\o11_MMV1581034_3D.pdb
REMARK  6 active torsions:
REMARK  status: ('A' for Active; 'I' for Inactive)
REMARK    1  A    between atoms: C2_3  and  S1_4
REMARK    2  A    between atoms: S1_4  and  C3_7
REMARK    3  A    between atoms: C8_13  and  O4_29
REMARK    4  A    between atoms: C9_14  and  N2_15
REMARK    5  A    between atoms: N3_18  and  C11_19
REMARK    6  A    between atoms: C12_20  and  C17_26
REMARK                            x       y       z     vdW  Elec       q    Type
REMARK                         _______ _______ _______ _____ _____    ______ ____
ROOT
ATOM      1 CL1  UNL     1     150.779 165.842 164.923  0.00  0.00    +0.000 Cl
ATOM      2  C1  UNL     1     151.310 164.360 165.713  0.00  0.00    +0.000 A 
ATOM      3  C2  UNL     1     150.761 164.055 166.936  0.00  0.00    +0.000 A 
ATOM      4  C8  UNL     1     151.181 162.887 167.559  0.00  0.00    +0.000 A 
ATOM      5  C9  UNL     1     152.132 162.027 166.984  0.00  0.00    +0.000 A 
ATOM      6  C18 UNL     1     152.652 162.372 165.764  0.00  0.00    +0.000 A 
ATOM      7  C19 UNL     1     152.245 163.544 165.118  0.00  0.00    +0.000 A 
ENDROOT
BRANCH   5   8
ATOM      8  N2  UNL     1     152.494 160.870 167.685  0.00  0.00    +0.000 N 
ATOM      9  C10 UNL     1     153.675 160.647 168.446  0.00  0.00    +0.000 C 
ATOM     10  O3  UNL     1     154.495 161.582 168.505  0.00  0.00    +0.000 OA
ATOM     11  N3  UNL     1     153.907 159.414 169.107  0.00  0.00    +0.000 N 
ATOM     12  H11 UNL     1     151.842 160.026 167.683  0.00  0.00    +0.000 HD
ATOM     13  H12 UNL     1     153.162 158.660 169.012  0.00  0.00    +0.000 HD
BRANCH  11  14
ATOM     14  C11 UNL     1     155.061 159.148 169.870  0.00  0.00    +0.000 A 
ATOM     15  C12 UNL     1     155.011 159.459 171.252  0.00  0.00    +0.000 A 
ATOM     16  C13 UNL     1     156.049 159.256 172.112  0.00  0.00    +0.000 A 
ATOM     17  C14 UNL     1     157.209 158.724 171.633  0.00  0.00    +0.000 A 
ATOM     18  C15 UNL     1     157.284 158.415 170.307  0.00  0.00    +0.000 A 
ATOM     19  C16 UNL     1     156.225 158.623 169.429  0.00  0.00    +0.000 A 
ATOM     20  F1  UNL     1     155.928 159.580 173.433  0.00  0.00    +0.000 F 
ATOM     21  C17 UNL     1     153.751 160.045 171.810  0.00  0.00    +0.000 C 
ENDBRANCH  11  14
ENDBRANCH   5   8
BRANCH   3  22
ATOM     22  S1  UNL     1     149.580 165.070 167.710  0.00  0.00    +0.000 S 
ATOM     23  O1  UNL     1     150.016 166.509 167.721  0.00  0.00    +0.000 OA
ATOM     24  O2  UNL     1     149.400 164.678 169.170  0.00  0.00    +0.000 OA
BRANCH  22  25
ATOM     25  C3  UNL     1     147.992 164.981 166.954  0.00  0.00    +0.000 C 
ATOM     26  C4  UNL     1     147.627 166.222 166.184  0.00  0.00    +0.000 C 
ATOM     27  N1  UNL     1     146.546 165.875 165.268  0.00  0.00    +0.000 NA
ATOM     28  C5  UNL     1     145.842 164.686 165.639  0.00  0.00    +0.000 C 
ATOM     29  C6  UNL     1     145.594 164.598 167.134  0.00  0.00    +0.000 C 
ATOM     30  C7  UNL     1     146.890 164.671 167.913  0.00  0.00    +0.000 C 
ATOM     31  H4  UNL     1     146.986 165.748 164.328  0.00  0.00    +0.000 HD
ENDBRANCH  22  25
ENDBRANCH   3  22
BRANCH   4  32
ATOM     32  O4  UNL     1     150.621 162.619 168.759  0.00  0.00    +0.000 OA
ATOM     33  H21 UNL     1     149.685 162.401 168.932  0.00  0.00    +0.000 HD
ENDBRANCH   4  32
TORSDOF 5
ENDMDL
MODEL 9
REMARK VINA RESULT:      -6.4      2.064      2.569
REMARK  Name = ./3D_structures\o11_MMV1581034_3D.pdb
REMARK  6 active torsions:
REMARK  status: ('A' for Active; 'I' for Inactive)
REMARK    1  A    between atoms: C2_3  and  S1_4
REMARK    2  A    between atoms: S1_4  and  C3_7
REMARK    3  A    between atoms: C8_13  and  O4_29
REMARK    4  A    between atoms: C9_14  and  N2_15
REMARK    5  A    between atoms: N3_18  and  C11_19
REMARK    6  A    between atoms: C12_20  and  C17_26
REMARK                            x       y       z     vdW  Elec       q    Type
REMARK                         _______ _______ _______ _____ _____    ______ ____
ROOT
ATOM      1 CL1  UNL     1     151.252 166.219 164.686  0.00  0.00    +0.000 Cl
ATOM      2  C1  UNL     1     151.716 164.529 164.864  0.00  0.00    +0.000 A 
ATOM      3  C2  UNL     1     151.088 163.792 165.840  0.00  0.00    +0.000 A 
ATOM      4  C8  UNL     1     151.454 162.460 165.981  0.00  0.00    +0.000 A 
ATOM      5  C9  UNL     1     152.430 161.858 165.168  0.00  0.00    +0.000 A 
ATOM      6  C18 UNL     1     153.030 162.631 164.209  0.00  0.00    +0.000 A 
ATOM      7  C19 UNL     1     152.677 163.976 164.049  0.00  0.00    +0.000 A 
ENDROOT
BRANCH   5   8
ATOM      8  N2  UNL     1     152.734 160.508 165.382  0.00  0.00    +0.000 N 
ATOM      9  C10 UNL     1     153.843 159.967 166.090  0.00  0.00    +0.000 C 
ATOM     10  O3  UNL     1     154.648 160.777 166.586  0.00  0.00    +0.000 OA
ATOM     11  N3  UNL     1     154.021 158.567 166.226  0.00  0.00    +0.000 N 
ATOM     12  H11 UNL     1     152.091 159.754 164.989  0.00  0.00    +0.000 HD
ATOM     13  H12 UNL     1     153.294 157.934 165.776  0.00  0.00    +0.000 HD
BRANCH  11  14
ATOM     14  C11 UNL     1     155.103 157.986 166.918  0.00  0.00    +0.000 A 
ATOM     15  C12 UNL     1     154.910 157.687 168.289  0.00  0.00    +0.000 A 
ATOM     16  C13 UNL     1     155.865 157.124 169.083  0.00  0.00    +0.000 A 
ATOM     17  C14 UNL     1     157.081 156.825 168.544  0.00  0.00    +0.000 A 
ATOM     18  C15 UNL     1     157.294 157.104 167.226  0.00  0.00    +0.000 A 
ATOM     19  C16 UNL     1     156.319 157.679 166.416  0.00  0.00    +0.000 A 
ATOM     20  F1  UNL     1     155.607 156.862 170.399  0.00  0.00    +0.000 F 
ATOM     21  C17 UNL     1     153.586 158.002 168.913  0.00  0.00    +0.000 C 
ENDBRANCH  11  14
ENDBRANCH   5   8
BRANCH   3  22
ATOM     22  S1  UNL     1     149.872 164.468 166.884  0.00  0.00    +0.000 S 
ATOM     23  O1  UNL     1     148.853 163.435 167.279  0.00  0.00    +0.000 OA
ATOM     24  O2  UNL     1     149.097 165.569 166.174  0.00  0.00    +0.000 OA
BRANCH  22  25
ATOM     25  C3  UNL     1     150.540 165.173 168.353  0.00  0.00    +0.000 C 
ATOM     26  C4  UNL     1     149.944 164.605 169.613  0.00  0.00    +0.000 C 
ATOM     27  N1  UNL     1     150.850 164.915 170.713  0.00  0.00    +0.000 NA
ATOM     28  C5  UNL     1     151.743 165.997 170.430  0.00  0.00    +0.000 C 
ATOM     29  C6  UNL     1     151.063 167.138 169.695  0.00  0.00    +0.000 C 
ATOM     30  C7  UNL     1     150.432 166.662 168.403  0.00  0.00    +0.000 C 
ATOM     31  H4  UNL     1     151.397 164.044 170.900  0.00  0.00    +0.000 HD
ENDBRANCH  22  25
ENDBRANCH   3  22
BRANCH   4  32
ATOM     32  O4  UNL     1     150.817 161.767 166.950  0.00  0.00    +0.000 OA
ATOM     33  H21 UNL     1     149.870 161.530 166.972  0.00  0.00    +0.000 HD
ENDBRANCH   4  32
TORSDOF 5
ENDMDL
