MODEL 1
REMARK VINA RESULT:      -5.9      0.000      0.000
REMARK  Name = ./3D_structures\o12_MMV1581033_3D.pdb
REMARK  11 active torsions:
REMARK  status: ('A' for Active; 'I' for Inactive)
REMARK    1  A    between atoms: C1_2  and  O2_3
REMARK    2  A    between atoms: C1_2  and  C2_4
REMARK    3  A    between atoms: C2_4  and  N1_5
REMARK    4  A    between atoms: C2_4  and  C8_15
REMARK    5  A    between atoms: C3_6  and  C4_8
REMARK    6  A    between atoms: C4_8  and  C5_9
REMARK    7  A    between atoms: C5_9  and  C6_10
REMARK    8  A    between atoms: C6_10  and  N2_11
REMARK    9  A    between atoms: C6_10  and  C7_12
REMARK   10  A    between atoms: C7_12  and  O5_14
REMARK   11  A    between atoms: C8_15  and  C9_16
REMARK                            x       y       z     vdW  Elec       q    Type
REMARK                         _______ _______ _______ _____ _____    ______ ____
ROOT
ATOM      1  C2  UNL     1     148.443 164.454 168.684  0.00  0.00    +0.000 C 
ENDROOT
BRANCH   1   2
ATOM      2  N1  UNL     1     147.247 164.632 167.807  0.00  0.00    +0.000 N 
ATOM      3  C3  UNL     1     146.760 163.577 166.996  0.00  0.00    +0.000 C 
ATOM      4  O3  UNL     1     147.326 162.459 166.996  0.00  0.00    +0.000 OA
ATOM      5  H3  UNL     1     146.767 165.555 167.797  0.00  0.00    +0.000 HD
BRANCH   3   6
ATOM      6  C4  UNL     1     145.550 163.865 166.150  0.00  0.00    +0.000 C 
BRANCH   6   7
ATOM      7  C5  UNL     1     144.794 165.048 166.647  0.00  0.00    +0.000 C 
BRANCH   7   8
ATOM      8  C6  UNL     1     144.668 166.056 165.527  0.00  0.00    +0.000 C 
BRANCH   8   9
ATOM      9  N2  UNL     1     143.272 166.497 165.548  0.00  0.00    +0.000 NA
ATOM     10  H9  UNL     1     143.027 166.763 164.547  0.00  0.00    +0.000 HD
ATOM     11  H10 UNL     1     143.163 167.352 166.119  0.00  0.00    +0.000 HD
ENDBRANCH   8   9
BRANCH   8  12
ATOM     12  C7  UNL     1     145.517 167.254 165.694  0.00  0.00    +0.000 C 
ATOM     13  O4  UNL     1     146.776 167.155 165.815  0.00  0.00    +0.000 OA
BRANCH  12  14
ATOM     14  O5  UNL     1     145.028 168.551 165.733  0.00  0.00    +0.000 OA
ATOM     15  H11 UNL     1     145.569 169.257 165.227  0.00  0.00    +0.000 HD
ENDBRANCH  12  14
ENDBRANCH   8  12
ENDBRANCH   7   8
ENDBRANCH   6   7
ENDBRANCH   3   6
ENDBRANCH   1   2
BRANCH   1  17
ATOM     16  O1  UNL     1     146.878 164.512 170.525  0.00  0.00    +0.000 OA
ATOM     17  C1  UNL     1     148.020 164.724 170.060  0.00  0.00    +0.000 C 
BRANCH  17  18
ATOM     18  O2  UNL     1     148.948 165.260 170.964  0.00  0.00    +0.000 OA
ATOM     19  H1  UNL     1     148.648 165.644 171.851  0.00  0.00    +0.000 HD
ENDBRANCH  17  18
ENDBRANCH   1  17
BRANCH   1  20
ATOM     20  C8  UNL     1     149.468 165.394 168.112  0.00  0.00    +0.000 C 
BRANCH  20  21
ATOM     21  C9  UNL     1     150.206 164.953 166.948  0.00  0.00    +0.000 A 
ATOM     22  C10 UNL     1     150.401 165.660 165.755  0.00  0.00    +0.000 A 
ATOM     23  N3  UNL     1     151.100 164.925 164.903  0.00  0.00    +0.000 N 
ATOM     24  C11 UNL     1     151.388 163.739 165.480  0.00  0.00    +0.000 A 
ATOM     25  C12 UNL     1     150.834 163.742 166.763  0.00  0.00    +0.000 A 
ATOM     26  C13 UNL     1     151.004 162.633 167.577  0.00  0.00    +0.000 A 
ATOM     27  C14 UNL     1     151.709 161.561 167.106  0.00  0.00    +0.000 A 
ATOM     28  C15 UNL     1     152.266 161.528 165.849  0.00  0.00    +0.000 A 
ATOM     29  C16 UNL     1     152.091 162.634 165.049  0.00  0.00    +0.000 A 
ATOM     30  H15 UNL     1     151.388 165.210 163.937  0.00  0.00    +0.000 HD
ENDBRANCH  20  21
ENDBRANCH   1  20
TORSDOF 11
ENDMDL
MODEL 2
REMARK VINA RESULT:      -5.7      2.835      6.242
REMARK  Name = ./3D_structures\o12_MMV1581033_3D.pdb
REMARK  11 active torsions:
REMARK  status: ('A' for Active; 'I' for Inactive)
REMARK    1  A    between atoms: C1_2  and  O2_3
REMARK    2  A    between atoms: C1_2  and  C2_4
REMARK    3  A    between atoms: C2_4  and  N1_5
REMARK    4  A    between atoms: C2_4  and  C8_15
REMARK    5  A    between atoms: C3_6  and  C4_8
REMARK    6  A    between atoms: C4_8  and  C5_9
REMARK    7  A    between atoms: C5_9  and  C6_10
REMARK    8  A    between atoms: C6_10  and  N2_11
REMARK    9  A    between atoms: C6_10  and  C7_12
REMARK   10  A    between atoms: C7_12  and  O5_14
REMARK   11  A    between atoms: C8_15  and  C9_16
REMARK                            x       y       z     vdW  Elec       q    Type
REMARK                         _______ _______ _______ _____ _____    ______ ____
ROOT
ATOM      1  C2  UNL     1     145.841 165.710 165.844  0.00  0.00    +0.000 C 
ENDROOT
BRANCH   1   2
ATOM      2  N1  UNL     1     146.713 165.678 167.056  0.00  0.00    +0.000 N 
ATOM      3  C3  UNL     1     148.107 165.443 166.958  0.00  0.00    +0.000 C 
ATOM      4  O3  UNL     1     148.646 165.256 165.842  0.00  0.00    +0.000 OA
ATOM      5  H3  UNL     1     146.280 165.831 167.989  0.00  0.00    +0.000 HD
BRANCH   3   6
ATOM      6  C4  UNL     1     148.892 165.429 168.241  0.00  0.00    +0.000 C 
BRANCH   6   7
ATOM      7  C5  UNL     1     148.827 164.104 168.918  0.00  0.00    +0.000 C 
BRANCH   7   8
ATOM      8  C6  UNL     1     148.081 164.255 170.225  0.00  0.00    +0.000 C 
BRANCH   8   9
ATOM      9  N2  UNL     1     148.329 165.629 170.665  0.00  0.00    +0.000 NA
ATOM     10  H9  UNL     1     147.561 166.225 170.232  0.00  0.00    +0.000 HD
ATOM     11  H10 UNL     1     149.227 165.980 170.291  0.00  0.00    +0.000 HD
ENDBRANCH   8   9
BRANCH   8  12
ATOM     12  C7  UNL     1     146.619 164.081 170.109  0.00  0.00    +0.000 C 
ATOM     13  O4  UNL     1     146.085 162.934 170.204  0.00  0.00    +0.000 OA
BRANCH  12  14
ATOM     14  O5  UNL     1     145.729 165.121 169.892  0.00  0.00    +0.000 OA
ATOM     15  H11 UNL     1     144.790 165.007 170.283  0.00  0.00    +0.000 HD
ENDBRANCH  12  14
ENDBRANCH   8  12
ENDBRANCH   7   8
ENDBRANCH   6   7
ENDBRANCH   3   6
ENDBRANCH   1   2
BRANCH   1  17
ATOM     16  O1  UNL     1     146.331 168.067 165.619  0.00  0.00    +0.000 OA
ATOM     17  C1  UNL     1     145.521 167.114 165.574  0.00  0.00    +0.000 C 
BRANCH  17  18
ATOM     18  O2  UNL     1     144.207 167.457 165.226  0.00  0.00    +0.000 OA
ATOM     19  H1  UNL     1     143.889 168.416 165.278  0.00  0.00    +0.000 HD
ENDBRANCH  17  18
ENDBRANCH   1  17
BRANCH   1  20
ATOM     20  C8  UNL     1     144.679 164.824 166.197  0.00  0.00    +0.000 C 
BRANCH  20  21
ATOM     21  C9  UNL     1     144.790 163.416 165.884  0.00  0.00    +0.000 A 
ATOM     22  C10 UNL     1     145.337 162.412 166.692  0.00  0.00    +0.000 A 
ATOM     23  N3  UNL     1     145.296 161.249 166.059  0.00  0.00    +0.000 N 
ATOM     24  C11 UNL     1     144.737 161.431 164.844  0.00  0.00    +0.000 A 
ATOM     25  C12 UNL     1     144.414 162.785 164.720  0.00  0.00    +0.000 A 
ATOM     26  C13 UNL     1     143.806 163.232 163.557  0.00  0.00    +0.000 A 
ATOM     27  C14 UNL     1     143.538 162.339 162.558  0.00  0.00    +0.000 A 
ATOM     28  C15 UNL     1     143.844 161.001 162.650  0.00  0.00    +0.000 A 
ATOM     29  C16 UNL     1     144.447 160.567 163.809  0.00  0.00    +0.000 A 
ATOM     30  H15 UNL     1     145.640 160.333 166.433  0.00  0.00    +0.000 HD
ENDBRANCH  20  21
ENDBRANCH   1  20
TORSDOF 11
ENDMDL
MODEL 3
REMARK VINA RESULT:      -5.5      2.038      4.461
REMARK  Name = ./3D_structures\o12_MMV1581033_3D.pdb
REMARK  11 active torsions:
REMARK  status: ('A' for Active; 'I' for Inactive)
REMARK    1  A    between atoms: C1_2  and  O2_3
REMARK    2  A    between atoms: C1_2  and  C2_4
REMARK    3  A    between atoms: C2_4  and  N1_5
REMARK    4  A    between atoms: C2_4  and  C8_15
REMARK    5  A    between atoms: C3_6  and  C4_8
REMARK    6  A    between atoms: C4_8  and  C5_9
REMARK    7  A    between atoms: C5_9  and  C6_10
REMARK    8  A    between atoms: C6_10  and  N2_11
REMARK    9  A    between atoms: C6_10  and  C7_12
REMARK   10  A    between atoms: C7_12  and  O5_14
REMARK   11  A    between atoms: C8_15  and  C9_16
REMARK                            x       y       z     vdW  Elec       q    Type
REMARK                         _______ _______ _______ _____ _____    ______ ____
ROOT
ATOM      1  C2  UNL     1     146.162 166.376 166.481  0.00  0.00    +0.000 C 
ENDROOT
BRANCH   1   2
ATOM      2  N1  UNL     1     145.749 164.964 166.226  0.00  0.00    +0.000 N 
ATOM      3  C3  UNL     1     145.220 164.150 167.258  0.00  0.00    +0.000 C 
ATOM      4  O3  UNL     1     145.084 164.601 168.420  0.00  0.00    +0.000 OA
ATOM      5  H3  UNL     1     145.856 164.577 165.267  0.00  0.00    +0.000 HD
BRANCH   3   6
ATOM      6  C4  UNL     1     144.837 162.742 166.893  0.00  0.00    +0.000 C 
BRANCH   6   7
ATOM      7  C5  UNL     1     144.983 161.810 168.046  0.00  0.00    +0.000 C 
BRANCH   7   8
ATOM      8  C6  UNL     1     146.261 161.019 167.881  0.00  0.00    +0.000 C 
BRANCH   8   9
ATOM      9  N2  UNL     1     146.273 160.577 166.485  0.00  0.00    +0.000 NA
ATOM     10  H9  UNL     1     146.532 159.544 166.500  0.00  0.00    +0.000 HD
ATOM     11  H10 UNL     1     147.013 161.062 165.950  0.00  0.00    +0.000 HD
ENDBRANCH   8   9
BRANCH   8  12
ATOM     12  C7  UNL     1     147.491 161.803 168.111  0.00  0.00    +0.000 C 
ATOM     13  O4  UNL     1     147.729 162.336 169.238  0.00  0.00    +0.000 OA
BRANCH  12  14
ATOM     14  O5  UNL     1     148.464 162.021 167.147  0.00  0.00    +0.000 OA
ATOM     15  H11 UNL     1     148.179 162.561 166.326  0.00  0.00    +0.000 HD
ENDBRANCH  12  14
ENDBRANCH   8  12
ENDBRANCH   7   8
ENDBRANCH   6   7
ENDBRANCH   3   6
ENDBRANCH   1   2
BRANCH   1  17
ATOM     16  O1  UNL     1     144.070 166.884 165.383  0.00  0.00    +0.000 OA
ATOM     17  C1  UNL     1     145.186 167.244 165.817  0.00  0.00    +0.000 C 
BRANCH  17  18
ATOM     18  O2  UNL     1     145.493 168.601 165.639  0.00  0.00    +0.000 OA
ATOM     19  H1  UNL     1     145.341 169.269 166.383  0.00  0.00    +0.000 HD
ENDBRANCH  17  18
ENDBRANCH   1  17
BRANCH   1  20
ATOM     20  C8  UNL     1     147.572 166.451 165.965  0.00  0.00    +0.000 C 
BRANCH  20  21
ATOM     21  C9  UNL     1     148.605 165.790 166.733  0.00  0.00    +0.000 A 
ATOM     22  C10 UNL     1     148.528 165.375 168.068  0.00  0.00    +0.000 A 
ATOM     23  N3  UNL     1     149.680 164.837 168.441  0.00  0.00    +0.000 N 
ATOM     24  C11 UNL     1     150.538 164.873 167.400  0.00  0.00    +0.000 A 
ATOM     25  C12 UNL     1     149.878 165.467 166.322  0.00  0.00    +0.000 A 
ATOM     26  C13 UNL     1     150.545 165.610 165.114  0.00  0.00    +0.000 A 
ATOM     27  C14 UNL     1     151.832 165.166 165.006  0.00  0.00    +0.000 A 
ATOM     28  C15 UNL     1     152.509 164.577 166.049  0.00  0.00    +0.000 A 
ATOM     29  C16 UNL     1     151.838 164.440 167.243  0.00  0.00    +0.000 A 
ATOM     30  H15 UNL     1     149.897 164.445 169.388  0.00  0.00    +0.000 HD
ENDBRANCH  20  21
ENDBRANCH   1  20
TORSDOF 11
ENDMDL
MODEL 4
REMARK VINA RESULT:      -5.4      1.850      2.231
REMARK  Name = ./3D_structures\o12_MMV1581033_3D.pdb
REMARK  11 active torsions:
REMARK  status: ('A' for Active; 'I' for Inactive)
REMARK    1  A    between atoms: C1_2  and  O2_3
REMARK    2  A    between atoms: C1_2  and  C2_4
REMARK    3  A    between atoms: C2_4  and  N1_5
REMARK    4  A    between atoms: C2_4  and  C8_15
REMARK    5  A    between atoms: C3_6  and  C4_8
REMARK    6  A    between atoms: C4_8  and  C5_9
REMARK    7  A    between atoms: C5_9  and  C6_10
REMARK    8  A    between atoms: C6_10  and  N2_11
REMARK    9  A    between atoms: C6_10  and  C7_12
REMARK   10  A    between atoms: C7_12  and  O5_14
REMARK   11  A    between atoms: C8_15  and  C9_16
REMARK                            x       y       z     vdW  Elec       q    Type
REMARK                         _______ _______ _______ _____ _____    ______ ____
ROOT
ATOM      1  C2  UNL     1     148.659 164.511 168.102  0.00  0.00    +0.000 C 
ENDROOT
BRANCH   1   2
ATOM      2  N1  UNL     1     147.279 164.642 167.547  0.00  0.00    +0.000 N 
ATOM      3  C3  UNL     1     146.629 163.554 166.914  0.00  0.00    +0.000 C 
ATOM      4  O3  UNL     1     147.203 162.444 166.805  0.00  0.00    +0.000 OA
ATOM      5  H3  UNL     1     146.791 165.557 167.631  0.00  0.00    +0.000 HD
BRANCH   3   6
ATOM      6  C4  UNL     1     145.240 163.795 166.390  0.00  0.00    +0.000 C 
BRANCH   6   7
ATOM      7  C5  UNL     1     144.709 165.120 166.814  0.00  0.00    +0.000 C 
BRANCH   7   8
ATOM      8  C6  UNL     1     144.634 166.029 165.609  0.00  0.00    +0.000 C 
BRANCH   8   9
ATOM      9  N2  UNL     1     143.242 166.477 165.538  0.00  0.00    +0.000 NA
ATOM     10  H9  UNL     1     143.199 167.405 166.059  0.00  0.00    +0.000 HD
ATOM     11  H10 UNL     1     142.617 165.824 166.040  0.00  0.00    +0.000 HD
ENDBRANCH   8   9
BRANCH   8  12
ATOM     12  C7  UNL     1     145.485 167.233 165.705  0.00  0.00    +0.000 C 
ATOM     13  O4  UNL     1     146.747 167.138 165.796  0.00  0.00    +0.000 OA
BRANCH  12  14
ATOM     14  O5  UNL     1     144.997 168.530 165.707  0.00  0.00    +0.000 OA
ATOM     15  H11 UNL     1     144.728 168.914 166.617  0.00  0.00    +0.000 HD
ENDBRANCH  12  14
ENDBRANCH   8  12
ENDBRANCH   7   8
ENDBRANCH   6   7
ENDBRANCH   3   6
ENDBRANCH   1   2
BRANCH   1  17
ATOM     16  O1  UNL     1     148.839 162.809 169.809  0.00  0.00    +0.000 OA
ATOM     17  C1  UNL     1     148.535 163.970 169.458  0.00  0.00    +0.000 C 
BRANCH  17  18
ATOM     18  O2  UNL     1     148.043 164.798 170.477  0.00  0.00    +0.000 OA
ATOM     19  H1  UNL     1     147.582 165.672 170.260  0.00  0.00    +0.000 HD
ENDBRANCH  17  18
ENDBRANCH   1  17
BRANCH   1  20
ATOM     20  C8  UNL     1     149.239 165.893 167.992  0.00  0.00    +0.000 C 
BRANCH  20  21
ATOM     21  C9  UNL     1     150.668 166.009 167.797  0.00  0.00    +0.000 A 
ATOM     22  C10 UNL     1     151.622 166.392 168.747  0.00  0.00    +0.000 A 
ATOM     23  N3  UNL     1     152.826 166.414 168.196  0.00  0.00    +0.000 N 
ATOM     24  C11 UNL     1     152.720 166.058 166.898  0.00  0.00    +0.000 A 
ATOM     25  C12 UNL     1     151.373 165.800 166.633  0.00  0.00    +0.000 A 
ATOM     26  C13 UNL     1     150.998 165.396 165.361  0.00  0.00    +0.000 A 
ATOM     27  C14 UNL     1     151.955 165.260 164.395  0.00  0.00    +0.000 A 
ATOM     28  C15 UNL     1     153.289 165.507 164.624  0.00  0.00    +0.000 A 
ATOM     29  C16 UNL     1     153.650 165.907 165.890  0.00  0.00    +0.000 A 
ATOM     30  H15 UNL     1     153.719 166.667 168.681  0.00  0.00    +0.000 HD
ENDBRANCH  20  21
ENDBRANCH   1  20
TORSDOF 11
ENDMDL
MODEL 5
REMARK VINA RESULT:      -5.3      3.119      5.448
REMARK  Name = ./3D_structures\o12_MMV1581033_3D.pdb
REMARK  11 active torsions:
REMARK  status: ('A' for Active; 'I' for Inactive)
REMARK    1  A    between atoms: C1_2  and  O2_3
REMARK    2  A    between atoms: C1_2  and  C2_4
REMARK    3  A    between atoms: C2_4  and  N1_5
REMARK    4  A    between atoms: C2_4  and  C8_15
REMARK    5  A    between atoms: C3_6  and  C4_8
REMARK    6  A    between atoms: C4_8  and  C5_9
REMARK    7  A    between atoms: C5_9  and  C6_10
REMARK    8  A    between atoms: C6_10  and  N2_11
REMARK    9  A    between atoms: C6_10  and  C7_12
REMARK   10  A    between atoms: C7_12  and  O5_14
REMARK   11  A    between atoms: C8_15  and  C9_16
REMARK                            x       y       z     vdW  Elec       q    Type
REMARK                         _______ _______ _______ _____ _____    ______ ____
ROOT
ATOM      1  C2  UNL     1     145.342 165.701 166.339  0.00  0.00    +0.000 C 
ENDROOT
BRANCH   1   2
ATOM      2  N1  UNL     1     144.741 164.822 165.291  0.00  0.00    +0.000 N 
ATOM      3  C3  UNL     1     143.727 163.884 165.604  0.00  0.00    +0.000 C 
ATOM      4  O3  UNL     1     143.304 163.769 166.779  0.00  0.00    +0.000 OA
ATOM      5  H3  UNL     1     145.082 164.906 164.312  0.00  0.00    +0.000 HD
BRANCH   3   6
ATOM      6  C4  UNL     1     143.193 163.048 164.474  0.00  0.00    +0.000 C 
BRANCH   6   7
ATOM      7  C5  UNL     1     144.287 162.473 163.643  0.00  0.00    +0.000 C 
BRANCH   7   8
ATOM      8  C6  UNL     1     144.269 160.967 163.780  0.00  0.00    +0.000 C 
BRANCH   8   9
ATOM      9  N2  UNL     1     145.409 160.486 162.998  0.00  0.00    +0.000 NA
ATOM     10  H9  UNL     1     146.225 161.130 163.230  0.00  0.00    +0.000 HD
ATOM     11  H10 UNL     1     145.230 160.583 161.984  0.00  0.00    +0.000 HD
ENDBRANCH   8   9
BRANCH   8  12
ATOM     12  C7  UNL     1     144.443 160.483 165.165  0.00  0.00    +0.000 C 
ATOM     13  O4  UNL     1     143.546 159.789 165.735  0.00  0.00    +0.000 OA
BRANCH  12  14
ATOM     14  O5  UNL     1     145.563 160.738 165.940  0.00  0.00    +0.000 OA
ATOM     15  H11 UNL     1     145.574 160.322 166.876  0.00  0.00    +0.000 HD
ENDBRANCH  12  14
ENDBRANCH   8  12
ENDBRANCH   7   8
ENDBRANCH   6   7
ENDBRANCH   3   6
ENDBRANCH   1   2
BRANCH   1  17
ATOM     16  O1  UNL     1     146.628 167.614 165.612  0.00  0.00    +0.000 OA
ATOM     17  C1  UNL     1     145.532 167.025 165.742  0.00  0.00    +0.000 C 
BRANCH  17  18
ATOM     18  O2  UNL     1     144.414 167.720 165.258  0.00  0.00    +0.000 OA
ATOM     19  H1  UNL     1     144.189 167.720 164.272  0.00  0.00    +0.000 HD
ENDBRANCH  17  18
ENDBRANCH   1  17
BRANCH   1  20
ATOM     20  C8  UNL     1     146.592 164.979 166.759  0.00  0.00    +0.000 C 
BRANCH  20  21
ATOM     21  C9  UNL     1     146.984 165.071 168.149  0.00  0.00    +0.000 A 
ATOM     22  C10 UNL     1     146.138 165.150 169.261  0.00  0.00    +0.000 A 
ATOM     23  N3  UNL     1     146.856 165.255 170.369  0.00  0.00    +0.000 N 
ATOM     24  C11 UNL     1     148.167 165.249 170.045  0.00  0.00    +0.000 A 
ATOM     25  C12 UNL     1     148.262 165.133 168.656  0.00  0.00    +0.000 A 
ATOM     26  C13 UNL     1     149.516 165.087 168.065  0.00  0.00    +0.000 A 
ATOM     27  C14 UNL     1     150.629 165.157 168.854  0.00  0.00    +0.000 A 
ATOM     28  C15 UNL     1     150.567 165.271 170.224  0.00  0.00    +0.000 A 
ATOM     29  C16 UNL     1     149.318 165.315 170.800  0.00  0.00    +0.000 A 
ATOM     30  H15 UNL     1     146.477 165.330 171.343  0.00  0.00    +0.000 HD
ENDBRANCH  20  21
ENDBRANCH   1  20
TORSDOF 11
ENDMDL
MODEL 6
REMARK VINA RESULT:      -5.3      8.103     11.652
REMARK  Name = ./3D_structures\o12_MMV1581033_3D.pdb
REMARK  11 active torsions:
REMARK  status: ('A' for Active; 'I' for Inactive)
REMARK    1  A    between atoms: C1_2  and  O2_3
REMARK    2  A    between atoms: C1_2  and  C2_4
REMARK    3  A    between atoms: C2_4  and  N1_5
REMARK    4  A    between atoms: C2_4  and  C8_15
REMARK    5  A    between atoms: C3_6  and  C4_8
REMARK    6  A    between atoms: C4_8  and  C5_9
REMARK    7  A    between atoms: C5_9  and  C6_10
REMARK    8  A    between atoms: C6_10  and  N2_11
REMARK    9  A    between atoms: C6_10  and  C7_12
REMARK   10  A    between atoms: C7_12  and  O5_14
REMARK   11  A    between atoms: C8_15  and  C9_16
REMARK                            x       y       z     vdW  Elec       q    Type
REMARK                         _______ _______ _______ _____ _____    ______ ____
ROOT
ATOM      1  C2  UNL     1     156.619 158.410 169.610  0.00  0.00    +0.000 C 
ENDROOT
BRANCH   1   2
ATOM      2  N1  UNL     1     157.424 157.686 168.581  0.00  0.00    +0.000 N 
ATOM      3  C3  UNL     1     158.071 158.377 167.527  0.00  0.00    +0.000 C 
ATOM      4  O3  UNL     1     157.984 159.624 167.433  0.00  0.00    +0.000 OA
ATOM      5  H3  UNL     1     157.505 156.651 168.647  0.00  0.00    +0.000 HD
BRANCH   3   6
ATOM      6  C4  UNL     1     158.855 157.550 166.545  0.00  0.00    +0.000 C 
BRANCH   6   7
ATOM      7  C5  UNL     1     158.058 157.231 165.327  0.00  0.00    +0.000 C 
BRANCH   7   8
ATOM      8  C6  UNL     1     157.394 155.886 165.513  0.00  0.00    +0.000 C 
BRANCH   8   9
ATOM      9  N2  UNL     1     155.955 156.138 165.411  0.00  0.00    +0.000 NA
ATOM     10  H9  UNL     1     155.474 155.351 165.943  0.00  0.00    +0.000 HD
ATOM     11  H10 UNL     1     155.637 156.074 164.430  0.00  0.00    +0.000 HD
ENDBRANCH   8   9
BRANCH   8  12
ATOM     12  C7  UNL     1     157.746 154.890 164.480  0.00  0.00    +0.000 C 
ATOM     13  O4  UNL     1     158.693 154.065 164.659  0.00  0.00    +0.000 OA
BRANCH  12  14
ATOM     14  O5  UNL     1     157.094 154.773 163.262  0.00  0.00    +0.000 OA
ATOM     15  H11 UNL     1     156.287 155.385 163.116  0.00  0.00    +0.000 HD
ENDBRANCH  12  14
ENDBRANCH   8  12
ENDBRANCH   7   8
ENDBRANCH   6   7
ENDBRANCH   3   6
ENDBRANCH   1   2
BRANCH   1  17
ATOM     16  O1  UNL     1     158.507 158.314 171.117  0.00  0.00    +0.000 OA
ATOM     17  C1  UNL     1     157.279 158.209 170.902  0.00  0.00    +0.000 C 
BRANCH  17  18
ATOM     18  O2  UNL     1     156.499 157.872 172.018  0.00  0.00    +0.000 OA
ATOM     19  H1  UNL     1     155.924 157.040 172.019  0.00  0.00    +0.000 HD
ENDBRANCH  17  18
ENDBRANCH   1  17
BRANCH   1  20
ATOM     20  C8  UNL     1     155.237 157.833 169.476  0.00  0.00    +0.000 C 
BRANCH  20  21
ATOM     21  C9  UNL     1     154.159 158.740 169.147  0.00  0.00    +0.000 A 
ATOM     22  C10 UNL     1     153.166 159.220 170.009  0.00  0.00    +0.000 A 
ATOM     23  N3  UNL     1     152.331 160.005 169.345  0.00  0.00    +0.000 N 
ATOM     24  C11 UNL     1     152.727 160.075 168.056  0.00  0.00    +0.000 A 
ATOM     25  C12 UNL     1     153.872 159.288 167.917  0.00  0.00    +0.000 A 
ATOM     26  C13 UNL     1     154.491 159.204 166.678  0.00  0.00    +0.000 A 
ATOM     27  C14 UNL     1     153.965 159.893 165.622  0.00  0.00    +0.000 A 
ATOM     28  C15 UNL     1     152.838 160.676 165.727  0.00  0.00    +0.000 A 
ATOM     29  C16 UNL     1     152.233 160.752 166.961  0.00  0.00    +0.000 A 
ATOM     30  H15 UNL     1     151.497 160.496 169.746  0.00  0.00    +0.000 HD
ENDBRANCH  20  21
ENDBRANCH   1  20
TORSDOF 11
ENDMDL
MODEL 7
REMARK VINA RESULT:      -5.3      8.931     11.170
REMARK  Name = ./3D_structures\o12_MMV1581033_3D.pdb
REMARK  11 active torsions:
REMARK  status: ('A' for Active; 'I' for Inactive)
REMARK    1  A    between atoms: C1_2  and  O2_3
REMARK    2  A    between atoms: C1_2  and  C2_4
REMARK    3  A    between atoms: C2_4  and  N1_5
REMARK    4  A    between atoms: C2_4  and  C8_15
REMARK    5  A    between atoms: C3_6  and  C4_8
REMARK    6  A    between atoms: C4_8  and  C5_9
REMARK    7  A    between atoms: C5_9  and  C6_10
REMARK    8  A    between atoms: C6_10  and  N2_11
REMARK    9  A    between atoms: C6_10  and  C7_12
REMARK   10  A    between atoms: C7_12  and  O5_14
REMARK   11  A    between atoms: C8_15  and  C9_16
REMARK                            x       y       z     vdW  Elec       q    Type
REMARK                         _______ _______ _______ _____ _____    ______ ____
ROOT
ATOM      1  C2  UNL     1     156.610 159.063 170.059  0.00  0.00    +0.000 C 
ENDROOT
BRANCH   1   2
ATOM      2  N1  UNL     1     157.013 158.611 168.694  0.00  0.00    +0.000 N 
ATOM      3  C3  UNL     1     158.334 158.180 168.417  0.00  0.00    +0.000 C 
ATOM      4  O3  UNL     1     159.204 158.168 169.320  0.00  0.00    +0.000 OA
ATOM      5  H3  UNL     1     156.301 158.616 167.935  0.00  0.00    +0.000 HD
BRANCH   3   6
ATOM      6  C4  UNL     1     158.633 157.747 167.008  0.00  0.00    +0.000 C 
BRANCH   6   7
ATOM      7  C5  UNL     1     157.864 156.530 166.626  0.00  0.00    +0.000 C 
BRANCH   7   8
ATOM      8  C6  UNL     1     156.805 156.913 165.618  0.00  0.00    +0.000 C 
BRANCH   8   9
ATOM      9  N2  UNL     1     156.339 155.653 165.037  0.00  0.00    +0.000 NA
ATOM     10  H9  UNL     1     157.139 154.959 165.143  0.00  0.00    +0.000 HD
ATOM     11  H10 UNL     1     156.164 155.755 164.023  0.00  0.00    +0.000 HD
ENDBRANCH   8   9
BRANCH   8  12
ATOM     12  C7  UNL     1     155.632 157.596 166.201  0.00  0.00    +0.000 C 
ATOM     13  O4  UNL     1     155.274 158.745 165.799  0.00  0.00    +0.000 OA
BRANCH  12  14
ATOM     14  O5  UNL     1     154.846 157.061 167.210  0.00  0.00    +0.000 OA
ATOM     15  H11 UNL     1     155.283 156.346 167.798  0.00  0.00    +0.000 HD
ENDBRANCH  12  14
ENDBRANCH   8  12
ENDBRANCH   7   8
ENDBRANCH   6   7
ENDBRANCH   3   6
ENDBRANCH   1   2
BRANCH   1  17
ATOM     16  O1  UNL     1     156.525 157.659 172.026  0.00  0.00    +0.000 OA
ATOM     17  C1  UNL     1     156.243 157.869 170.825  0.00  0.00    +0.000 C 
BRANCH  17  18
ATOM     18  O2  UNL     1     155.509 156.855 170.192  0.00  0.00    +0.000 OA
ATOM     19  H1  UNL     1     155.343 155.970 170.653  0.00  0.00    +0.000 HD
ENDBRANCH  17  18
ENDBRANCH   1  17
BRANCH   1  20
ATOM     20  C8  UNL     1     155.508 160.055 169.814  0.00  0.00    +0.000 C 
BRANCH  20  21
ATOM     21  C9  UNL     1     154.426 160.108 170.774  0.00  0.00    +0.000 A 
ATOM     22  C10 UNL     1     154.436 160.740 172.022  0.00  0.00    +0.000 A 
ATOM     23  N3  UNL     1     153.278 160.548 172.636  0.00  0.00    +0.000 N 
ATOM     24  C11 UNL     1     152.479 159.804 171.842  0.00  0.00    +0.000 A 
ATOM     25  C12 UNL     1     153.186 159.521 170.670  0.00  0.00    +0.000 A 
ATOM     26  C13 UNL     1     152.574 158.775 169.674  0.00  0.00    +0.000 A 
ATOM     27  C14 UNL     1     151.294 158.333 169.862  0.00  0.00    +0.000 A 
ATOM     28  C15 UNL     1     150.573 158.595 171.004  0.00  0.00    +0.000 A 
ATOM     29  C16 UNL     1     151.190 159.336 171.986  0.00  0.00    +0.000 A 
ATOM     30  H15 UNL     1     153.016 160.911 173.583  0.00  0.00    +0.000 HD
ENDBRANCH  20  21
ENDBRANCH   1  20
TORSDOF 11
ENDMDL
MODEL 8
REMARK VINA RESULT:      -5.3     21.076     24.355
REMARK  Name = ./3D_structures\o12_MMV1581033_3D.pdb
REMARK  11 active torsions:
REMARK  status: ('A' for Active; 'I' for Inactive)
REMARK    1  A    between atoms: C1_2  and  O2_3
REMARK    2  A    between atoms: C1_2  and  C2_4
REMARK    3  A    between atoms: C2_4  and  N1_5
REMARK    4  A    between atoms: C2_4  and  C8_15
REMARK    5  A    between atoms: C3_6  and  C4_8
REMARK    6  A    between atoms: C4_8  and  C5_9
REMARK    7  A    between atoms: C5_9  and  C6_10
REMARK    8  A    between atoms: C6_10  and  N2_11
REMARK    9  A    between atoms: C6_10  and  C7_12
REMARK   10  A    between atoms: C7_12  and  O5_14
REMARK   11  A    between atoms: C8_15  and  C9_16
REMARK                            x       y       z     vdW  Elec       q    Type
REMARK                         _______ _______ _______ _____ _____    ______ ____
ROOT
ATOM      1  C2  UNL     1     161.871 143.725 171.422  0.00  0.00    +0.000 C 
ENDROOT
BRANCH   1   2
ATOM      2  N1  UNL     1     162.227 145.169 171.293  0.00  0.00    +0.000 N 
ATOM      3  C3  UNL     1     161.235 146.161 171.093  0.00  0.00    +0.000 C 
ATOM      4  O3  UNL     1     160.024 145.846 171.020  0.00  0.00    +0.000 OA
ATOM      5  H3  UNL     1     163.229 145.445 171.352  0.00  0.00    +0.000 HD
BRANCH   3   6
ATOM      6  C4  UNL     1     161.704 147.585 170.975  0.00  0.00    +0.000 C 
BRANCH   6   7
ATOM      7  C5  UNL     1     161.005 148.311 169.878  0.00  0.00    +0.000 C 
BRANCH   7   8
ATOM      8  C6  UNL     1     161.895 148.332 168.657  0.00  0.00    +0.000 C 
BRANCH   8   9
ATOM      9  N2  UNL     1     161.110 148.985 167.607  0.00  0.00    +0.000 NA
ATOM     10  H9  UNL     1     160.643 148.205 167.054  0.00  0.00    +0.000 HD
ATOM     11  H10 UNL     1     161.724 149.493 166.949  0.00  0.00    +0.000 HD
ENDBRANCH   8   9
BRANCH   8  12
ATOM     12  C7  UNL     1     163.141 149.107 168.829  0.00  0.00    +0.000 C 
ATOM     13  O4  UNL     1     164.244 148.689 168.363  0.00  0.00    +0.000 OA
BRANCH  12  14
ATOM     14  O5  UNL     1     163.212 150.320 169.497  0.00  0.00    +0.000 OA
ATOM     15  H11 UNL     1     162.378 150.604 170.017  0.00  0.00    +0.000 HD
ENDBRANCH  12  14
ENDBRANCH   8  12
ENDBRANCH   7   8
ENDBRANCH   6   7
ENDBRANCH   3   6
ENDBRANCH   1   2
BRANCH   1  17
ATOM     16  O1  UNL     1     162.983 143.302 173.526  0.00  0.00    +0.000 OA
ATOM     17  C1  UNL     1     161.937 143.384 172.845  0.00  0.00    +0.000 C 
BRANCH  17  18
ATOM     18  O2  UNL     1     160.746 143.124 173.538  0.00  0.00    +0.000 OA
ATOM     19  H1  UNL     1     160.442 143.725 174.293  0.00  0.00    +0.000 HD
ENDBRANCH  17  18
ENDBRANCH   1  17
BRANCH   1  20
ATOM     20  C8  UNL     1     162.850 143.018 170.527  0.00  0.00    +0.000 C 
BRANCH  20  21
ATOM     21  C9  UNL     1     162.323 142.314 169.378  0.00  0.00    +0.000 A 
ATOM     22  C10 UNL     1     162.473 140.955 169.077  0.00  0.00    +0.000 A 
ATOM     23  N3  UNL     1     161.880 140.678 167.926  0.00  0.00    +0.000 N 
ATOM     24  C11 UNL     1     161.329 141.808 167.433  0.00  0.00    +0.000 A 
ATOM     25  C12 UNL     1     161.598 142.842 168.333  0.00  0.00    +0.000 A 
ATOM     26  C13 UNL     1     161.121 144.116 168.063  0.00  0.00    +0.000 A 
ATOM     27  C14 UNL     1     160.400 144.330 166.922  0.00  0.00    +0.000 A 
ATOM     28  C15 UNL     1     160.119 143.333 166.018  0.00  0.00    +0.000 A 
ATOM     29  C16 UNL     1     160.597 142.073 166.295  0.00  0.00    +0.000 A 
ATOM     30  H15 UNL     1     161.840 139.738 167.466  0.00  0.00    +0.000 HD
ENDBRANCH  20  21
ENDBRANCH   1  20
TORSDOF 11
ENDMDL
MODEL 9
REMARK VINA RESULT:      -5.1     21.461     24.733
REMARK  Name = ./3D_structures\o12_MMV1581033_3D.pdb
REMARK  11 active torsions:
REMARK  status: ('A' for Active; 'I' for Inactive)
REMARK    1  A    between atoms: C1_2  and  O2_3
REMARK    2  A    between atoms: C1_2  and  C2_4
REMARK    3  A    between atoms: C2_4  and  N1_5
REMARK    4  A    between atoms: C2_4  and  C8_15
REMARK    5  A    between atoms: C3_6  and  C4_8
REMARK    6  A    between atoms: C4_8  and  C5_9
REMARK    7  A    between atoms: C5_9  and  C6_10
REMARK    8  A    between atoms: C6_10  and  N2_11
REMARK    9  A    between atoms: C6_10  and  C7_12
REMARK   10  A    between atoms: C7_12  and  O5_14
REMARK   11  A    between atoms: C8_15  and  C9_16
REMARK                            x       y       z     vdW  Elec       q    Type
REMARK                         _______ _______ _______ _____ _____    ______ ____
ROOT
ATOM      1  C2  UNL     1     161.708 143.646 171.467  0.00  0.00    +0.000 C 
ENDROOT
BRANCH   1   2
ATOM      2  N1  UNL     1     161.884 145.063 171.030  0.00  0.00    +0.000 N 
ATOM      3  C3  UNL     1     160.772 145.917 170.824  0.00  0.00    +0.000 C 
ATOM      4  O3  UNL     1     159.604 145.499 171.005  0.00  0.00    +0.000 OA
ATOM      5  H3  UNL     1     162.847 145.424 170.876  0.00  0.00    +0.000 HD
BRANCH   3   6
ATOM      6  C4  UNL     1     161.062 147.326 170.383  0.00  0.00    +0.000 C 
BRANCH   6   7
ATOM      7  C5  UNL     1     162.427 147.457 169.803  0.00  0.00    +0.000 C 
BRANCH   7   8
ATOM      8  C6  UNL     1     162.360 148.341 168.579  0.00  0.00    +0.000 C 
BRANCH   8   9
ATOM      9  N2  UNL     1     160.940 148.639 168.386  0.00  0.00    +0.000 NA
ATOM     10  H9  UNL     1     160.854 149.077 167.419  0.00  0.00    +0.000 HD
ATOM     11  H10 UNL     1     160.615 149.348 169.065  0.00  0.00    +0.000 HD
ENDBRANCH   8   9
BRANCH   8  12
ATOM     12  C7  UNL     1     163.070 149.628 168.723  0.00  0.00    +0.000 C 
ATOM     13  O4  UNL     1     163.429 150.056 169.862  0.00  0.00    +0.000 OA
BRANCH  12  14
ATOM     14  O5  UNL     1     163.395 150.457 167.660  0.00  0.00    +0.000 OA
ATOM     15  H11 UNL     1     164.358 150.400 167.316  0.00  0.00    +0.000 HD
ENDBRANCH  12  14
ENDBRANCH   8  12
ENDBRANCH   7   8
ENDBRANCH   6   7
ENDBRANCH   3   6
ENDBRANCH   1   2
BRANCH   1  17
ATOM     16  O1  UNL     1     162.751 143.378 173.631  0.00  0.00    +0.000 OA
ATOM     17  C1  UNL     1     161.746 143.632 172.931  0.00  0.00    +0.000 C 
BRANCH  17  18
ATOM     18  O2  UNL     1     160.575 143.928 173.644  0.00  0.00    +0.000 OA
ATOM     19  H1  UNL     1     160.003 143.190 174.033  0.00  0.00    +0.000 HD
ENDBRANCH  17  18
ENDBRANCH   1  17
BRANCH   1  20
ATOM     20  C8  UNL     1     162.813 142.902 170.770  0.00  0.00    +0.000 C 
BRANCH  20  21
ATOM     21  C9  UNL     1     162.627 142.578 169.372  0.00  0.00    +0.000 A 
ATOM     22  C10 UNL     1     161.411 142.436 168.693  0.00  0.00    +0.000 A 
ATOM     23  N3  UNL     1     161.635 142.104 167.431  0.00  0.00    +0.000 N 
ATOM     24  C11 UNL     1     162.966 142.015 167.229  0.00  0.00    +0.000 A 
ATOM     25  C12 UNL     1     163.602 142.310 168.438  0.00  0.00    +0.000 A 
ATOM     26  C13 UNL     1     164.988 142.303 168.494  0.00  0.00    +0.000 A 
ATOM     27  C14 UNL     1     165.700 142.007 167.366  0.00  0.00    +0.000 A 
ATOM     28  C15 UNL     1     165.103 141.712 166.162  0.00  0.00    +0.000 A 
ATOM     29  C16 UNL     1     163.728 141.722 166.117  0.00  0.00    +0.000 A 
ATOM     30  H15 UNL     1     160.902 141.935 166.700  0.00  0.00    +0.000 HD
ENDBRANCH  20  21
ENDBRANCH   1  20
TORSDOF 11
ENDMDL
