MODEL 1
REMARK VINA RESULT:      -7.0      0.000      0.000
REMARK  Name = ./3D_structures\o14_MMV1580796_3D.pdb
REMARK  4 active torsions:
REMARK  status: ('A' for Active; 'I' for Inactive)
REMARK    1  A    between atoms: N1_2  and  C1_4
REMARK    2  A    between atoms: C16_22  and  O4_23
REMARK    3  A    between atoms: C16_22  and  C19_28
REMARK    4  A    between atoms: C19_28  and  C20_29
REMARK                            x       y       z     vdW  Elec       q    Type
REMARK                         _______ _______ _______ _____ _____    ______ ____
ROOT
ATOM      1  C1  UNL     1     152.113 158.061 169.805  0.00  0.00    +0.000 A 
ATOM      2  C2  UNL     1     151.480 156.988 170.425  0.00  0.00    +0.000 A 
ATOM      3  C3  UNL     1     150.110 157.005 170.531  0.00  0.00    +0.000 A 
ATOM      4  C4  UNL     1     149.375 158.062 170.035  0.00  0.00    +0.000 A 
ATOM      5  C5  UNL     1     150.006 159.125 169.420  0.00  0.00    +0.000 A 
ATOM      6  N2  UNL     1     149.257 160.149 168.952  0.00  0.00    +0.000 NA
ATOM      7  C6  UNL     1     149.851 161.191 168.362  0.00  0.00    +0.000 A 
ATOM      8  C7  UNL     1     151.215 161.244 168.221  0.00  0.00    +0.000 A 
ATOM      9  C8  UNL     1     151.991 160.202 168.696  0.00  0.00    +0.000 A 
ATOM     10  C9  UNL     1     151.402 159.126 169.303  0.00  0.00    +0.000 A 
ATOM     11  C10 UNL     1     151.591 162.490 167.544  0.00  0.00    +0.000 C 
ATOM     12  N3  UNL     1     150.338 163.168 167.294  0.00  0.00    +0.000 N 
ATOM     13  C11 UNL     1     150.118 164.351 166.698  0.00  0.00    +0.000 A 
ATOM     14  O3  UNL     1     151.099 165.027 166.265  0.00  0.00    +0.000 OA
ATOM     15  C12 UNL     1     148.810 164.829 166.557  0.00  0.00    +0.000 A 
ATOM     16  C13 UNL     1     147.758 164.096 167.025  0.00  0.00    +0.000 A 
ATOM     17  C14 UNL     1     148.012 162.888 167.631  0.00  0.00    +0.000 A 
ATOM     18  C15 UNL     1     149.327 162.428 167.763  0.00  0.00    +0.000 A 
ATOM     19  C16 UNL     1     146.389 164.592 166.880  0.00  0.00    +0.000 C 
ATOM     20  C17 UNL     1     146.325 166.031 166.579  0.00  0.00    +0.000 C 
ATOM     21  O5  UNL     1     145.224 166.624 166.756  0.00  0.00    +0.000 OA
ATOM     22  O6  UNL     1     147.401 166.732 166.119  0.00  0.00    +0.000 OA
ATOM     23  C18 UNL     1     148.636 166.126 165.897  0.00  0.00    +0.000 C 
ENDROOT
BRANCH   1  25
ATOM     24  O1  UNL     1     154.077 157.281 168.665  0.00  0.00    +0.000 OA
ATOM     25  N1  UNL     1     153.520 158.003 169.720  0.00  0.00    +0.000 N 
ATOM     26  O2  UNL     1     154.279 158.573 170.497  0.00  0.00    +0.000 OA
ENDBRANCH   1  25
BRANCH  19  27
ATOM     27  O4  UNL     1     145.749 163.912 165.831  0.00  0.00    +0.000 OA
ATOM     28  H8  UNL     1     145.274 164.551 165.242  0.00  0.00    +0.000 HD
ENDBRANCH  19  27
BRANCH  19  29
ATOM     29  C19 UNL     1     145.556 164.361 168.142  0.00  0.00    +0.000 C 
ATOM     30  C20 UNL     1     144.393 163.472 167.755  0.00  0.00    +0.000 C 
ENDBRANCH  19  29
TORSDOF 3
ENDMDL
MODEL 2
REMARK VINA RESULT:      -6.6      1.364      1.806
REMARK  Name = ./3D_structures\o14_MMV1580796_3D.pdb
REMARK  4 active torsions:
REMARK  status: ('A' for Active; 'I' for Inactive)
REMARK    1  A    between atoms: N1_2  and  C1_4
REMARK    2  A    between atoms: C16_22  and  O4_23
REMARK    3  A    between atoms: C16_22  and  C19_28
REMARK    4  A    between atoms: C19_28  and  C20_29
REMARK                            x       y       z     vdW  Elec       q    Type
REMARK                         _______ _______ _______ _____ _____    ______ ____
ROOT
ATOM      1  C1  UNL     1     152.072 159.692 169.857  0.00  0.00    +0.000 A 
ATOM      2  C2  UNL     1     151.758 158.404 170.278  0.00  0.00    +0.000 A 
ATOM      3  C3  UNL     1     150.475 157.947 170.095  0.00  0.00    +0.000 A 
ATOM      4  C4  UNL     1     149.517 158.745 169.504  0.00  0.00    +0.000 A 
ATOM      5  C5  UNL     1     149.833 160.023 169.087  0.00  0.00    +0.000 A 
ATOM      6  N2  UNL     1     148.868 160.783 168.519  0.00  0.00    +0.000 NA
ATOM      7  C6  UNL     1     149.152 162.025 168.117  0.00  0.00    +0.000 A 
ATOM      8  C7  UNL     1     150.411 162.550 168.269  0.00  0.00    +0.000 A 
ATOM      9  C8  UNL     1     151.405 161.781 168.848  0.00  0.00    +0.000 A 
ATOM     10  C9  UNL     1     151.134 160.507 169.266  0.00  0.00    +0.000 A 
ATOM     11  C10 UNL     1     150.439 163.920 167.745  0.00  0.00    +0.000 C 
ATOM     12  N3  UNL     1     149.095 164.162 167.269  0.00  0.00    +0.000 N 
ATOM     13  C11 UNL     1     148.583 165.262 166.696  0.00  0.00    +0.000 A 
ATOM     14  O3  UNL     1     149.323 166.275 166.511  0.00  0.00    +0.000 OA
ATOM     15  C12 UNL     1     147.239 165.286 166.305  0.00  0.00    +0.000 A 
ATOM     16  C13 UNL     1     146.447 164.193 166.507  0.00  0.00    +0.000 A 
ATOM     17  C14 UNL     1     146.997 163.078 167.096  0.00  0.00    +0.000 A 
ATOM     18  C15 UNL     1     148.343 163.075 167.480  0.00  0.00    +0.000 A 
ATOM     19  C16 UNL     1     145.042 164.212 166.100  0.00  0.00    +0.000 C 
ATOM     20  C17 UNL     1     144.529 165.571 165.859  0.00  0.00    +0.000 C 
ATOM     21  O5  UNL     1     143.277 165.733 165.829  0.00  0.00    +0.000 OA
ATOM     22  O6  UNL     1     145.353 166.642 165.670  0.00  0.00    +0.000 OA
ATOM     23  C18 UNL     1     146.740 166.517 165.685  0.00  0.00    +0.000 C 
ENDROOT
BRANCH   1  25
ATOM     24  O1  UNL     1     153.693 160.756 171.273  0.00  0.00    +0.000 OA
ATOM     25  N1  UNL     1     153.400 160.121 170.067  0.00  0.00    +0.000 N 
ATOM     26  O2  UNL     1     154.314 159.941 169.269  0.00  0.00    +0.000 OA
ENDBRANCH   1  25
BRANCH  19  27
ATOM     27  O4  UNL     1     144.885 163.484 164.909  0.00  0.00    +0.000 OA
ATOM     28  H8  UNL     1     145.488 162.699 164.900  0.00  0.00    +0.000 HD
ENDBRANCH  19  27
BRANCH  19  29
ATOM     29  C19 UNL     1     144.130 163.568 167.146  0.00  0.00    +0.000 C 
ATOM     30  C20 UNL     1     143.497 162.353 166.502  0.00  0.00    +0.000 C 
ENDBRANCH  19  29
TORSDOF 3
ENDMDL
MODEL 3
REMARK VINA RESULT:      -6.5      3.631      9.332
REMARK  Name = ./3D_structures\o14_MMV1580796_3D.pdb
REMARK  4 active torsions:
REMARK  status: ('A' for Active; 'I' for Inactive)
REMARK    1  A    between atoms: N1_2  and  C1_4
REMARK    2  A    between atoms: C16_22  and  O4_23
REMARK    3  A    between atoms: C16_22  and  C19_28
REMARK    4  A    between atoms: C19_28  and  C20_29
REMARK                            x       y       z     vdW  Elec       q    Type
REMARK                         _______ _______ _______ _____ _____    ______ ____
ROOT
ATOM      1  C1  UNL     1     149.421 164.424 169.096  0.00  0.00    +0.000 A 
ATOM      2  C2  UNL     1     149.101 164.880 167.822  0.00  0.00    +0.000 A 
ATOM      3  C3  UNL     1     149.880 164.476 166.764  0.00  0.00    +0.000 A 
ATOM      4  C4  UNL     1     150.957 163.636 166.959  0.00  0.00    +0.000 A 
ATOM      5  C5  UNL     1     151.272 163.185 168.226  0.00  0.00    +0.000 A 
ATOM      6  N2  UNL     1     152.339 162.369 168.383  0.00  0.00    +0.000 NA
ATOM      7  C6  UNL     1     152.665 161.930 169.603  0.00  0.00    +0.000 A 
ATOM      8  C7  UNL     1     151.934 162.293 170.706  0.00  0.00    +0.000 A 
ATOM      9  C8  UNL     1     150.840 163.126 170.556  0.00  0.00    +0.000 A 
ATOM     10  C9  UNL     1     150.490 163.587 169.315  0.00  0.00    +0.000 A 
ATOM     11  C10 UNL     1     152.511 161.671 171.903  0.00  0.00    +0.000 C 
ATOM     12  N3  UNL     1     153.641 160.910 171.418  0.00  0.00    +0.000 N 
ATOM     13  C11 UNL     1     154.511 160.153 172.104  0.00  0.00    +0.000 A 
ATOM     14  O3  UNL     1     154.389 160.039 173.361  0.00  0.00    +0.000 OA
ATOM     15  C12 UNL     1     155.546 159.494 171.430  0.00  0.00    +0.000 A 
ATOM     16  C13 UNL     1     155.673 159.621 170.077  0.00  0.00    +0.000 A 
ATOM     17  C14 UNL     1     154.768 160.403 169.399  0.00  0.00    +0.000 A 
ATOM     18  C15 UNL     1     153.740 161.054 170.091  0.00  0.00    +0.000 A 
ATOM     19  C16 UNL     1     156.753 158.934 169.368  0.00  0.00    +0.000 C 
ATOM     20  C17 UNL     1     157.832 158.479 170.261  0.00  0.00    +0.000 C 
ATOM     21  O5  UNL     1     158.942 158.178 169.740  0.00  0.00    +0.000 OA
ATOM     22  O6  UNL     1     157.669 158.373 171.611  0.00  0.00    +0.000 OA
ATOM     23  C18 UNL     1     156.463 158.683 172.235  0.00  0.00    +0.000 C 
ENDROOT
BRANCH   1  25
ATOM     24  O1  UNL     1     147.400 164.183 170.370  0.00  0.00    +0.000 OA
ATOM     25  N1  UNL     1     148.596 164.865 170.152  0.00  0.00    +0.000 N 
ATOM     26  O2  UNL     1     148.882 165.790 170.907  0.00  0.00    +0.000 OA
ENDBRANCH   1  25
BRANCH  19  27
ATOM     27  O4  UNL     1     156.242 157.802 168.712  0.00  0.00    +0.000 OA
ATOM     28  H8  UNL     1     156.473 157.826 167.749  0.00  0.00    +0.000 HD
ENDBRANCH  19  27
BRANCH  19  29
ATOM     29  C19 UNL     1     157.398 159.821 168.302  0.00  0.00    +0.000 C 
ATOM     30  C20 UNL     1     157.168 159.153 166.963  0.00  0.00    +0.000 C 
ENDBRANCH  19  29
TORSDOF 3
ENDMDL
MODEL 4
REMARK VINA RESULT:      -6.4      2.576      8.620
REMARK  Name = ./3D_structures\o14_MMV1580796_3D.pdb
REMARK  4 active torsions:
REMARK  status: ('A' for Active; 'I' for Inactive)
REMARK    1  A    between atoms: N1_2  and  C1_4
REMARK    2  A    between atoms: C16_22  and  O4_23
REMARK    3  A    between atoms: C16_22  and  C19_28
REMARK    4  A    between atoms: C19_28  and  C20_29
REMARK                            x       y       z     vdW  Elec       q    Type
REMARK                         _______ _______ _______ _____ _____    ______ ____
ROOT
ATOM      1  C1  UNL     1     148.014 164.731 168.196  0.00  0.00    +0.000 A 
ATOM      2  C2  UNL     1     147.956 165.758 167.260  0.00  0.00    +0.000 A 
ATOM      3  C3  UNL     1     148.903 165.794 166.264  0.00  0.00    +0.000 A 
ATOM      4  C4  UNL     1     149.890 164.834 166.192  0.00  0.00    +0.000 A 
ATOM      5  C5  UNL     1     149.945 163.816 167.123  0.00  0.00    +0.000 A 
ATOM      6  N2  UNL     1     150.931 162.895 167.029  0.00  0.00    +0.000 NA
ATOM      7  C6  UNL     1     151.006 161.907 167.926  0.00  0.00    +0.000 A 
ATOM      8  C7  UNL     1     150.096 161.807 168.949  0.00  0.00    +0.000 A 
ATOM      9  C8  UNL     1     149.083 162.744 169.054  0.00  0.00    +0.000 A 
ATOM     10  C9  UNL     1     148.989 163.763 168.145  0.00  0.00    +0.000 A 
ATOM     11  C10 UNL     1     150.414 160.639 169.777  0.00  0.00    +0.000 C 
ATOM     12  N3  UNL     1     151.584 160.055 169.160  0.00  0.00    +0.000 N 
ATOM     13  C11 UNL     1     152.281 158.966 169.522  0.00  0.00    +0.000 A 
ATOM     14  O3  UNL     1     151.921 158.303 170.541  0.00  0.00    +0.000 OA
ATOM     15  C12 UNL     1     153.397 158.571 168.776  0.00  0.00    +0.000 A 
ATOM     16  C13 UNL     1     153.779 159.289 167.681  0.00  0.00    +0.000 A 
ATOM     17  C14 UNL     1     153.048 160.400 167.331  0.00  0.00    +0.000 A 
ATOM     18  C15 UNL     1     151.936 160.780 168.090  0.00  0.00    +0.000 A 
ATOM     19  C16 UNL     1     154.945 158.879 166.897  0.00  0.00    +0.000 C 
ATOM     20  C17 UNL     1     155.820 157.936 167.613  0.00  0.00    +0.000 C 
ATOM     21  O5  UNL     1     156.995 157.775 167.181  0.00  0.00    +0.000 OA
ATOM     22  O6  UNL     1     155.404 157.241 168.711  0.00  0.00    +0.000 OA
ATOM     23  C18 UNL     1     154.115 157.374 169.223  0.00  0.00    +0.000 C 
ENDROOT
BRANCH   1  25
ATOM     24  O1  UNL     1     147.370 165.247 170.452  0.00  0.00    +0.000 OA
ATOM     25  N1  UNL     1     147.024 164.734 169.201  0.00  0.00    +0.000 N 
ATOM     26  O2  UNL     1     145.873 164.343 169.034  0.00  0.00    +0.000 OA
ENDBRANCH   1  25
BRANCH  19  27
ATOM     27  O4  UNL     1     154.522 158.249 165.715  0.00  0.00    +0.000 OA
ATOM     28  H8  UNL     1     154.507 157.266 165.833  0.00  0.00    +0.000 HD
ENDBRANCH  19  27
BRANCH  19  29
ATOM     29  C19 UNL     1     155.812 160.071 166.488  0.00  0.00    +0.000 C 
ATOM     30  C20 UNL     1     155.810 160.129 164.975  0.00  0.00    +0.000 C 
ENDBRANCH  19  29
TORSDOF 3
ENDMDL
MODEL 5
REMARK VINA RESULT:      -6.4      3.609      4.468
REMARK  Name = ./3D_structures\o14_MMV1580796_3D.pdb
REMARK  4 active torsions:
REMARK  status: ('A' for Active; 'I' for Inactive)
REMARK    1  A    between atoms: N1_2  and  C1_4
REMARK    2  A    between atoms: C16_22  and  O4_23
REMARK    3  A    between atoms: C16_22  and  C19_28
REMARK    4  A    between atoms: C19_28  and  C20_29
REMARK                            x       y       z     vdW  Elec       q    Type
REMARK                         _______ _______ _______ _____ _____    ______ ____
ROOT
ATOM      1  C1  UNL     1     156.101 158.193 169.938  0.00  0.00    +0.000 A 
ATOM      2  C2  UNL     1     156.058 157.184 168.982  0.00  0.00    +0.000 A 
ATOM      3  C3  UNL     1     155.030 157.187 168.068  0.00  0.00    +0.000 A 
ATOM      4  C4  UNL     1     154.062 158.169 168.097  0.00  0.00    +0.000 A 
ATOM      5  C5  UNL     1     154.108 159.169 169.048  0.00  0.00    +0.000 A 
ATOM      6  N2  UNL     1     153.138 160.112 169.053  0.00  0.00    +0.000 NA
ATOM      7  C6  UNL     1     153.161 161.082 169.972  0.00  0.00    +0.000 A 
ATOM      8  C7  UNL     1     154.154 161.143 170.916  0.00  0.00    +0.000 A 
ATOM      9  C8  UNL     1     155.151 160.184 170.919  0.00  0.00    +0.000 A 
ATOM     10  C9  UNL     1     155.146 159.182 169.987  0.00  0.00    +0.000 A 
ATOM     11  C10 UNL     1     153.932 162.300 171.789  0.00  0.00    +0.000 C 
ATOM     12  N3  UNL     1     152.728 162.921 171.283  0.00  0.00    +0.000 N 
ATOM     13  C11 UNL     1     152.088 164.016 171.723  0.00  0.00    +0.000 A 
ATOM     14  O3  UNL     1     152.546 164.652 172.720  0.00  0.00    +0.000 OA
ATOM     15  C12 UNL     1     150.923 164.450 171.081  0.00  0.00    +0.000 A 
ATOM     16  C13 UNL     1     150.435 163.761 170.008  0.00  0.00    +0.000 A 
ATOM     17  C14 UNL     1     151.110 162.643 169.578  0.00  0.00    +0.000 A 
ATOM     18  C15 UNL     1     152.273 162.225 170.234  0.00  0.00    +0.000 A 
ATOM     19  C16 UNL     1     149.218 164.211 169.333  0.00  0.00    +0.000 C 
ATOM     20  C17 UNL     1     148.427 165.158 170.137  0.00  0.00    +0.000 C 
ATOM     21  O5  UNL     1     147.223 165.351 169.807  0.00  0.00    +0.000 OA
ATOM     22  O6  UNL     1     148.948 165.822 171.208  0.00  0.00    +0.000 OA
ATOM     23  C18 UNL     1     150.272 165.652 171.608  0.00  0.00    +0.000 C 
ENDROOT
BRANCH   1  25
ATOM     24  O1  UNL     1     158.458 158.363 170.365  0.00  0.00    +0.000 OA
ATOM     25  N1  UNL     1     157.171 158.149 170.857  0.00  0.00    +0.000 N 
ATOM     26  O2  UNL     1     157.034 157.966 172.063  0.00  0.00    +0.000 OA
ENDBRANCH   1  25
BRANCH  19  27
ATOM     27  O4  UNL     1     149.554 164.856 168.131  0.00  0.00    +0.000 OA
ATOM     28  H8  UNL     1     149.412 165.833 168.211  0.00  0.00    +0.000 HD
ENDBRANCH  19  27
BRANCH  19  29
ATOM     29  C19 UNL     1     148.293 163.046 168.976  0.00  0.00    +0.000 C 
ATOM     30  C20 UNL     1     148.187 163.003 167.466  0.00  0.00    +0.000 C 
ENDBRANCH  19  29
TORSDOF 3
ENDMDL
MODEL 6
REMARK VINA RESULT:      -6.3      6.448      9.003
REMARK  Name = ./3D_structures\o14_MMV1580796_3D.pdb
REMARK  4 active torsions:
REMARK  status: ('A' for Active; 'I' for Inactive)
REMARK    1  A    between atoms: N1_2  and  C1_4
REMARK    2  A    between atoms: C16_22  and  O4_23
REMARK    3  A    between atoms: C16_22  and  C19_28
REMARK    4  A    between atoms: C19_28  and  C20_29
REMARK                            x       y       z     vdW  Elec       q    Type
REMARK                         _______ _______ _______ _____ _____    ______ ____
ROOT
ATOM      1  C1  UNL     1     158.841 156.898 165.720  0.00  0.00    +0.000 A 
ATOM      2  C2  UNL     1     160.209 157.150 165.711  0.00  0.00    +0.000 A 
ATOM      3  C3  UNL     1     160.742 157.925 166.714  0.00  0.00    +0.000 A 
ATOM      4  C4  UNL     1     159.939 158.442 167.710  0.00  0.00    +0.000 A 
ATOM      5  C5  UNL     1     158.581 158.189 167.716  0.00  0.00    +0.000 A 
ATOM      6  N2  UNL     1     157.822 158.718 168.702  0.00  0.00    +0.000 NA
ATOM      7  C6  UNL     1     156.505 158.492 168.720  0.00  0.00    +0.000 A 
ATOM      8  C7  UNL     1     155.903 157.729 167.751  0.00  0.00    +0.000 A 
ATOM      9  C8  UNL     1     156.670 157.183 166.738  0.00  0.00    +0.000 A 
ATOM     10  C9  UNL     1     158.021 157.403 166.702  0.00  0.00    +0.000 A 
ATOM     11  C10 UNL     1     154.462 157.647 168.015  0.00  0.00    +0.000 C 
ATOM     12  N3  UNL     1     154.262 158.422 169.220  0.00  0.00    +0.000 N 
ATOM     13  C11 UNL     1     153.125 158.668 169.891  0.00  0.00    +0.000 A 
ATOM     14  O3  UNL     1     152.031 158.185 169.470  0.00  0.00    +0.000 OA
ATOM     15  C12 UNL     1     153.154 159.454 171.049  0.00  0.00    +0.000 A 
ATOM     16  C13 UNL     1     154.335 159.970 171.498  0.00  0.00    +0.000 A 
ATOM     17  C14 UNL     1     155.484 159.702 170.791  0.00  0.00    +0.000 A 
ATOM     18  C15 UNL     1     155.435 158.915 169.635  0.00  0.00    +0.000 A 
ATOM     19  C16 UNL     1     154.371 160.791 172.708  0.00  0.00    +0.000 C 
ATOM     20  C17 UNL     1     153.045 161.295 173.104  0.00  0.00    +0.000 C 
ATOM     21  O5  UNL     1     152.998 162.260 173.916  0.00  0.00    +0.000 OA
ATOM     22  O6  UNL     1     151.886 160.756 172.627  0.00  0.00    +0.000 OA
ATOM     23  C18 UNL     1     151.881 159.686 171.737  0.00  0.00    +0.000 C 
ENDROOT
BRANCH   1  25
ATOM     24  O1  UNL     1     158.330 154.718 164.852  0.00  0.00    +0.000 OA
ATOM     25  N1  UNL     1     158.337 156.101 164.671  0.00  0.00    +0.000 N 
ATOM     26  O2  UNL     1     157.878 156.550 163.626  0.00  0.00    +0.000 OA
ENDBRANCH   1  25
BRANCH  19  27
ATOM     27  O4  UNL     1     154.872 160.033 173.779  0.00  0.00    +0.000 OA
ATOM     28  H8  UNL     1     155.807 159.760 173.602  0.00  0.00    +0.000 HD
ENDBRANCH  19  27
BRANCH  19  29
ATOM     29  C19 UNL     1     155.283 162.010 172.551  0.00  0.00    +0.000 C 
ATOM     30  C20 UNL     1     156.459 161.812 173.483  0.00  0.00    +0.000 C 
ENDBRANCH  19  29
TORSDOF 3
ENDMDL
MODEL 7
REMARK VINA RESULT:      -6.3      3.711      4.434
REMARK  Name = ./3D_structures\o14_MMV1580796_3D.pdb
REMARK  4 active torsions:
REMARK  status: ('A' for Active; 'I' for Inactive)
REMARK    1  A    between atoms: N1_2  and  C1_4
REMARK    2  A    between atoms: C16_22  and  O4_23
REMARK    3  A    between atoms: C16_22  and  C19_28
REMARK    4  A    between atoms: C19_28  and  C20_29
REMARK                            x       y       z     vdW  Elec       q    Type
REMARK                         _______ _______ _______ _____ _____    ______ ____
ROOT
ATOM      1  C1  UNL     1     156.128 157.287 167.635  0.00  0.00    +0.000 A 
ATOM      2  C2  UNL     1     156.405 156.687 168.859  0.00  0.00    +0.000 A 
ATOM      3  C3  UNL     1     155.841 157.218 169.995  0.00  0.00    +0.000 A 
ATOM      4  C4  UNL     1     155.017 158.322 169.925  0.00  0.00    +0.000 A 
ATOM      5  C5  UNL     1     154.743 158.915 168.708  0.00  0.00    +0.000 A 
ATOM      6  N2  UNL     1     153.938 160.001 168.676  0.00  0.00    +0.000 NA
ATOM      7  C6  UNL     1     153.669 160.594 167.509  0.00  0.00    +0.000 A 
ATOM      8  C7  UNL     1     154.198 160.122 166.334  0.00  0.00    +0.000 A 
ATOM      9  C8  UNL     1     155.023 159.011 166.356  0.00  0.00    +0.000 A 
ATOM     10  C9  UNL     1     155.310 158.389 167.541  0.00  0.00    +0.000 A 
ATOM     11  C10 UNL     1     153.741 160.957 165.218  0.00  0.00    +0.000 C 
ATOM     12  N3  UNL     1     152.898 161.961 165.828  0.00  0.00    +0.000 N 
ATOM     13  C11 UNL     1     152.229 162.972 165.251  0.00  0.00    +0.000 A 
ATOM     14  O3  UNL     1     152.296 163.132 163.995  0.00  0.00    +0.000 OA
ATOM     15  C12 UNL     1     151.462 163.840 166.037  0.00  0.00    +0.000 A 
ATOM     16  C13 UNL     1     151.393 163.662 167.388  0.00  0.00    +0.000 A 
ATOM     17  C14 UNL     1     152.089 162.619 167.953  0.00  0.00    +0.000 A 
ATOM     18  C15 UNL     1     152.850 161.762 167.151  0.00  0.00    +0.000 A 
ATOM     19  C16 UNL     1     150.593 164.567 168.213  0.00  0.00    +0.000 C 
ATOM     20  C17 UNL     1     150.248 165.823 167.526  0.00  0.00    +0.000 C 
ATOM     21  O5  UNL     1     149.855 166.794 168.231  0.00  0.00    +0.000 OA
ATOM     22  O6  UNL     1     150.337 165.965 166.172  0.00  0.00    +0.000 OA
ATOM     23  C18 UNL     1     150.755 164.923 165.347  0.00  0.00    +0.000 C 
ENDROOT
BRANCH   1  25
ATOM     24  O1  UNL     1     158.097 156.914 166.313  0.00  0.00    +0.000 OA
ATOM     25  N1  UNL     1     156.730 156.711 166.497  0.00  0.00    +0.000 N 
ATOM     26  O2  UNL     1     156.131 156.019 165.679  0.00  0.00    +0.000 OA
ENDBRANCH   1  25
BRANCH  19  27
ATOM     27  O4  UNL     1     149.389 163.938 168.573  0.00  0.00    +0.000 OA
ATOM     28  H8  UNL     1     148.956 164.421 169.321  0.00  0.00    +0.000 HD
ENDBRANCH  19  27
BRANCH  19  29
ATOM     29  C19 UNL     1     151.308 164.949 169.510  0.00  0.00    +0.000 C 
ATOM     30  C20 UNL     1     150.443 164.469 170.657  0.00  0.00    +0.000 C 
ENDBRANCH  19  29
TORSDOF 3
ENDMDL
MODEL 8
REMARK VINA RESULT:      -6.2      9.096     13.507
REMARK  Name = ./3D_structures\o14_MMV1580796_3D.pdb
REMARK  4 active torsions:
REMARK  status: ('A' for Active; 'I' for Inactive)
REMARK    1  A    between atoms: N1_2  and  C1_4
REMARK    2  A    between atoms: C16_22  and  O4_23
REMARK    3  A    between atoms: C16_22  and  C19_28
REMARK    4  A    between atoms: C19_28  and  C20_29
REMARK                            x       y       z     vdW  Elec       q    Type
REMARK                         _______ _______ _______ _____ _____    ______ ____
ROOT
ATOM      1  C1  UNL     1     155.750 158.178 169.384  0.00  0.00    +0.000 A 
ATOM      2  C2  UNL     1     155.519 158.374 170.741  0.00  0.00    +0.000 A 
ATOM      3  C3  UNL     1     156.593 158.622 171.563  0.00  0.00    +0.000 A 
ATOM      4  C4  UNL     1     157.874 158.676 171.055  0.00  0.00    +0.000 A 
ATOM      5  C5  UNL     1     158.101 158.481 169.706  0.00  0.00    +0.000 A 
ATOM      6  N2  UNL     1     159.370 158.532 169.242  0.00  0.00    +0.000 NA
ATOM      7  C6  UNL     1     159.610 158.336 167.942  0.00  0.00    +0.000 A 
ATOM      8  C7  UNL     1     158.588 158.082 167.062  0.00  0.00    +0.000 A 
ATOM      9  C8  UNL     1     157.286 158.029 167.527  0.00  0.00    +0.000 A 
ATOM     10  C9  UNL     1     157.019 158.226 168.855  0.00  0.00    +0.000 A 
ATOM     11  C10 UNL     1     159.134 157.909 165.712  0.00  0.00    +0.000 C 
ATOM     12  N3  UNL     1     160.561 158.083 165.864  0.00  0.00    +0.000 N 
ATOM     13  C11 UNL     1     161.527 158.026 164.934  0.00  0.00    +0.000 A 
ATOM     14  O3  UNL     1     161.221 157.790 163.726  0.00  0.00    +0.000 OA
ATOM     15  C12 UNL     1     162.863 158.226 165.301  0.00  0.00    +0.000 A 
ATOM     16  C13 UNL     1     163.186 158.479 166.602  0.00  0.00    +0.000 A 
ATOM     17  C14 UNL     1     162.177 158.532 167.535  0.00  0.00    +0.000 A 
ATOM     18  C15 UNL     1     160.848 158.329 167.149  0.00  0.00    +0.000 A 
ATOM     19  C16 UNL     1     164.581 158.689 166.990  0.00  0.00    +0.000 C 
ATOM     20  C17 UNL     1     165.540 158.218 165.977  0.00  0.00    +0.000 C 
ATOM     21  O5  UNL     1     166.739 158.046 166.333  0.00  0.00    +0.000 OA
ATOM     22  O6  UNL     1     165.177 157.968 164.686  0.00  0.00    +0.000 OA
ATOM     23  C18 UNL     1     163.871 158.151 164.239  0.00  0.00    +0.000 C 
ENDROOT
BRANCH   1  25
ATOM     24  O1  UNL     1     153.946 159.021 168.043  0.00  0.00    +0.000 OA
ATOM     25  N1  UNL     1     154.620 157.924 168.579  0.00  0.00    +0.000 N 
ATOM     26  O2  UNL     1     154.216 156.801 168.297  0.00  0.00    +0.000 OA
ENDBRANCH   1  25
BRANCH  19  27
ATOM     27  O4  UNL     1     164.815 160.060 167.188  0.00  0.00    +0.000 OA
ATOM     28  H8  UNL     1     164.462 160.348 168.068  0.00  0.00    +0.000 HD
ENDBRANCH  19  27
BRANCH  19  29
ATOM     29  C19 UNL     1     164.928 157.978 168.300  0.00  0.00    +0.000 C 
ATOM     30  C20 UNL     1     165.461 159.027 169.252  0.00  0.00    +0.000 C 
ENDBRANCH  19  29
TORSDOF 3
ENDMDL
MODEL 9
REMARK VINA RESULT:      -6.1      7.427     12.139
REMARK  Name = ./3D_structures\o14_MMV1580796_3D.pdb
REMARK  4 active torsions:
REMARK  status: ('A' for Active; 'I' for Inactive)
REMARK    1  A    between atoms: N1_2  and  C1_4
REMARK    2  A    between atoms: C16_22  and  O4_23
REMARK    3  A    between atoms: C16_22  and  C19_28
REMARK    4  A    between atoms: C19_28  and  C20_29
REMARK                            x       y       z     vdW  Elec       q    Type
REMARK                         _______ _______ _______ _____ _____    ______ ____
ROOT
ATOM      1  C1  UNL     1     155.211 159.675 169.502  0.00  0.00    +0.000 A 
ATOM      2  C2  UNL     1     153.917 159.350 169.894  0.00  0.00    +0.000 A 
ATOM      3  C3  UNL     1     153.358 158.186 169.421  0.00  0.00    +0.000 A 
ATOM      4  C4  UNL     1     154.064 157.357 168.575  0.00  0.00    +0.000 A 
ATOM      5  C5  UNL     1     155.349 157.682 168.187  0.00  0.00    +0.000 A 
ATOM      6  N2  UNL     1     156.010 156.851 167.350  0.00  0.00    +0.000 NA
ATOM      7  C6  UNL     1     157.251 157.154 166.956  0.00  0.00    +0.000 A 
ATOM      8  C7  UNL     1     157.872 158.300 167.386  0.00  0.00    +0.000 A 
ATOM      9  C8  UNL     1     157.205 159.157 168.243  0.00  0.00    +0.000 A 
ATOM     10  C9  UNL     1     155.934 158.864 168.658  0.00  0.00    +0.000 A 
ATOM     11  C10 UNL     1     159.215 158.379 166.803  0.00  0.00    +0.000 C 
ATOM     12  N3  UNL     1     159.339 157.187 165.994  0.00  0.00    +0.000 N 
ATOM     13  C11 UNL     1     160.374 156.772 165.245  0.00  0.00    +0.000 A 
ATOM     14  O3  UNL     1     161.429 157.474 165.191  0.00  0.00    +0.000 OA
ATOM     15  C12 UNL     1     160.283 155.572 164.531  0.00  0.00    +0.000 A 
ATOM     16  C13 UNL     1     159.145 154.822 164.594  0.00  0.00    +0.000 A 
ATOM     17  C14 UNL     1     158.100 155.269 165.368  0.00  0.00    +0.000 A 
ATOM     18  C15 UNL     1     158.210 156.472 166.074  0.00  0.00    +0.000 A 
ATOM     19  C16 UNL     1     159.046 153.566 163.850  0.00  0.00    +0.000 C 
ATOM     20  C17 UNL     1     160.063 153.438 162.793  0.00  0.00    +0.000 C 
ATOM     21  O5  UNL     1     159.874 152.574 161.893  0.00  0.00    +0.000 OA
ATOM     22  O6  UNL     1     161.185 154.213 162.760  0.00  0.00    +0.000 OA
ATOM     23  C18 UNL     1     161.447 155.175 163.734  0.00  0.00    +0.000 C 
ENDROOT
BRANCH   1  25
ATOM     24  O1  UNL     1     156.513 160.810 171.169  0.00  0.00    +0.000 OA
ATOM     25  N1  UNL     1     155.743 160.879 170.009  0.00  0.00    +0.000 N 
ATOM     26  O2  UNL     1     155.595 161.974 169.476  0.00  0.00    +0.000 OA
ENDBRANCH   1  25
BRANCH  19  27
ATOM     27  O4  UNL     1     159.210 152.482 164.728  0.00  0.00    +0.000 OA
ATOM     28  H8  UNL     1     159.679 151.737 164.274  0.00  0.00    +0.000 HD
ENDBRANCH  19  27
BRANCH  19  29
ATOM     29  C19 UNL     1     157.681 153.400 163.179  0.00  0.00    +0.000 C 
ATOM     30  C20 UNL     1     157.032 152.171 163.780  0.00  0.00    +0.000 C 
ENDBRANCH  19  29
TORSDOF 3
ENDMDL
