MODEL 1
REMARK VINA RESULT:      -7.4      0.000      0.000
REMARK  Name = ./3D_structures\o15_MMV1580505_3D.pdb
REMARK  4 active torsions:
REMARK  status: ('A' for Active; 'I' for Inactive)
REMARK    1  A    between atoms: C1_2  and  C20_27
REMARK    2  A    between atoms: N2_6  and  C4_7
REMARK    3  A    between atoms: C7_10  and  N3_11
REMARK    4  A    between atoms: C8_12  and  C9_14
REMARK                            x       y       z     vdW  Elec       q    Type
REMARK                         _______ _______ _______ _____ _____    ______ ____
ROOT
ATOM      1  C4  UNL     1     148.566 162.488 168.670  0.00  0.00    +0.000 A 
ATOM      2  C5  UNL     1     149.525 162.689 169.628  0.00  0.00    +0.000 A 
ATOM      3  C6  UNL     1     150.771 162.055 169.588  0.00  0.00    +0.000 A 
ATOM      4  C7  UNL     1     151.071 161.200 168.571  0.00  0.00    +0.000 A 
ATOM      5  C16 UNL     1     150.101 160.985 167.584  0.00  0.00    +0.000 A 
ATOM      6  C17 UNL     1     148.892 161.620 167.649  0.00  0.00    +0.000 A 
ENDROOT
BRANCH   1  12
ATOM      7  O1  UNL     1     145.192 166.186 166.287  0.00  0.00    +0.000 OA
ATOM      8  C1  UNL     1     144.819 164.947 166.584  0.00  0.00    +0.000 C 
ATOM      9  N1  UNL     1     145.229 164.493 167.825  0.00  0.00    +0.000 N 
ATOM     10  C2  UNL     1     144.937 163.253 168.445  0.00  0.00    +0.000 C 
ATOM     11  C3  UNL     1     146.178 162.378 168.216  0.00  0.00    +0.000 C 
ATOM     12  N2  UNL     1     147.289 163.166 168.734  0.00  0.00    +0.000 N 
ATOM     13  C18 UNL     1     147.183 164.494 169.263  0.00  0.00    +0.000 C 
ATOM     14  C19 UNL     1     146.132 165.369 168.621  0.00  0.00    +0.000 C 
BRANCH   8  15
ATOM     15  C20 UNL     1     144.057 164.340 165.529  0.00  0.00    +0.000 A 
ATOM     16  C21 UNL     1     142.751 164.656 165.263  0.00  0.00    +0.000 A 
ATOM     17  C22 UNL     1     142.127 164.041 164.175  0.00  0.00    +0.000 A 
ATOM     18  C23 UNL     1     142.765 163.136 163.365  0.00  0.00    +0.000 A 
ATOM     19  C24 UNL     1     144.077 162.807 163.620  0.00  0.00    +0.000 A 
ATOM     20  C25 UNL     1     144.688 163.414 164.690  0.00  0.00    +0.000 A 
ENDBRANCH   8  15
ENDBRANCH   1  12
BRANCH   4  21
ATOM     21  N3  UNL     1     152.307 160.500 168.473  0.00  0.00    +0.000 N 
ATOM     22  C8  UNL     1     152.543 159.235 169.005  0.00  0.00    +0.000 C 
ATOM     23  O2  UNL     1     151.618 158.630 169.620  0.00  0.00    +0.000 OA
ATOM     24  H7  UNL     1     153.122 160.967 167.960  0.00  0.00    +0.000 HD
BRANCH  22  25
ATOM     25  C9  UNL     1     153.851 158.550 168.884  0.00  0.00    +0.000 A 
ATOM     26  C10 UNL     1     154.181 157.986 167.674  0.00  0.00    +0.000 A 
ATOM     27  C11 UNL     1     155.384 157.340 167.499  0.00  0.00    +0.000 A 
ATOM     28  C12 UNL     1     156.275 157.249 168.538  0.00  0.00    +0.000 A 
ATOM     29  O3  UNL     1     157.373 156.547 168.045  0.00  0.00    +0.000 OA
ATOM     30  C13 UNL     1     157.303 156.594 166.636  0.00  0.00    +0.000 C 
ATOM     31  O4  UNL     1     155.917 156.703 166.367  0.00  0.00    +0.000 OA
ATOM     32  C14 UNL     1     155.949 157.812 169.750  0.00  0.00    +0.000 A 
ATOM     33  C15 UNL     1     154.722 158.467 169.918  0.00  0.00    +0.000 A 
ENDBRANCH  22  25
ENDBRANCH   4  21
TORSDOF 4
ENDMDL
MODEL 2
REMARK VINA RESULT:      -7.3      2.110     11.648
REMARK  Name = ./3D_structures\o15_MMV1580505_3D.pdb
REMARK  4 active torsions:
REMARK  status: ('A' for Active; 'I' for Inactive)
REMARK    1  A    between atoms: C1_2  and  C20_27
REMARK    2  A    between atoms: N2_6  and  C4_7
REMARK    3  A    between atoms: C7_10  and  N3_11
REMARK    4  A    between atoms: C8_12  and  C9_14
REMARK                            x       y       z     vdW  Elec       q    Type
REMARK                         _______ _______ _______ _____ _____    ______ ____
ROOT
ATOM      1  C4  UNL     1     151.613 160.744 169.047  0.00  0.00    +0.000 A 
ATOM      2  C5  UNL     1     151.531 161.017 167.706  0.00  0.00    +0.000 A 
ATOM      3  C6  UNL     1     150.631 161.953 167.185  0.00  0.00    +0.000 A 
ATOM      4  C7  UNL     1     149.793 162.633 168.016  0.00  0.00    +0.000 A 
ATOM      5  C16 UNL     1     149.866 162.365 169.389  0.00  0.00    +0.000 A 
ATOM      6  C17 UNL     1     150.756 161.445 169.869  0.00  0.00    +0.000 A 
ENDROOT
BRANCH   1  12
ATOM      7  O1  UNL     1     155.389 156.885 167.787  0.00  0.00    +0.000 OA
ATOM      8  C1  UNL     1     155.640 157.912 168.590  0.00  0.00    +0.000 C 
ATOM      9  N1  UNL     1     154.642 158.197 169.505  0.00  0.00    +0.000 N 
ATOM     10  C2  UNL     1     154.642 159.181 170.524  0.00  0.00    +0.000 C 
ATOM     11  C3  UNL     1     153.836 160.358 169.959  0.00  0.00    +0.000 C 
ATOM     12  N2  UNL     1     152.561 159.777 169.558  0.00  0.00    +0.000 N 
ATOM     13  C18 UNL     1     152.227 158.385 169.637  0.00  0.00    +0.000 C 
ATOM     14  C19 UNL     1     153.372 157.426 169.409  0.00  0.00    +0.000 C 
BRANCH   8  15
ATOM     15  C20 UNL     1     156.917 158.513 168.325  0.00  0.00    +0.000 A 
ATOM     16  C21 UNL     1     157.123 159.448 167.345  0.00  0.00    +0.000 A 
ATOM     17  C22 UNL     1     158.398 160.004 167.216  0.00  0.00    +0.000 A 
ATOM     18  C23 UNL     1     159.449 159.653 168.025  0.00  0.00    +0.000 A 
ATOM     19  C24 UNL     1     159.258 158.714 169.013  0.00  0.00    +0.000 A 
ATOM     20  C25 UNL     1     158.004 158.169 169.138  0.00  0.00    +0.000 A 
ENDBRANCH   8  15
ENDBRANCH   1  12
BRANCH   4  21
ATOM     21  N3  UNL     1     148.836 163.583 167.559  0.00  0.00    +0.000 N 
ATOM     22  C8  UNL     1     147.549 163.265 167.134  0.00  0.00    +0.000 C 
ATOM     23  O2  UNL     1     147.163 162.060 167.145  0.00  0.00    +0.000 OA
ATOM     24  H7  UNL     1     149.111 164.617 167.533  0.00  0.00    +0.000 HD
BRANCH  22  25
ATOM     25  C9  UNL     1     146.590 164.290 166.659  0.00  0.00    +0.000 A 
ATOM     26  C10 UNL     1     145.391 163.867 166.134  0.00  0.00    +0.000 A 
ATOM     27  C11 UNL     1     144.459 164.771 165.679  0.00  0.00    +0.000 A 
ATOM     28  C12 UNL     1     144.715 166.117 165.744  0.00  0.00    +0.000 A 
ATOM     29  O3  UNL     1     143.594 166.751 165.214  0.00  0.00    +0.000 OA
ATOM     30  C13 UNL     1     142.538 165.815 165.227  0.00  0.00    +0.000 C 
ATOM     31  O4  UNL     1     143.189 164.563 165.115  0.00  0.00    +0.000 OA
ATOM     32  C14 UNL     1     145.914 166.545 166.268  0.00  0.00    +0.000 A 
ATOM     33  C15 UNL     1     146.856 165.616 166.728  0.00  0.00    +0.000 A 
ENDBRANCH  22  25
ENDBRANCH   4  21
TORSDOF 4
ENDMDL
MODEL 3
REMARK VINA RESULT:      -7.3      2.687     11.678
REMARK  Name = ./3D_structures\o15_MMV1580505_3D.pdb
REMARK  4 active torsions:
REMARK  status: ('A' for Active; 'I' for Inactive)
REMARK    1  A    between atoms: C1_2  and  C20_27
REMARK    2  A    between atoms: N2_6  and  C4_7
REMARK    3  A    between atoms: C7_10  and  N3_11
REMARK    4  A    between atoms: C8_12  and  C9_14
REMARK                            x       y       z     vdW  Elec       q    Type
REMARK                         _______ _______ _______ _____ _____    ______ ____
ROOT
ATOM      1  C4  UNL     1     152.905 161.785 170.809  0.00  0.00    +0.000 A 
ATOM      2  C5  UNL     1     151.984 160.872 170.366  0.00  0.00    +0.000 A 
ATOM      3  C6  UNL     1     150.740 161.250 169.849  0.00  0.00    +0.000 A 
ATOM      4  C7  UNL     1     150.404 162.567 169.771  0.00  0.00    +0.000 A 
ATOM      5  C16 UNL     1     151.335 163.512 170.220  0.00  0.00    +0.000 A 
ATOM      6  C17 UNL     1     152.543 163.113 170.719  0.00  0.00    +0.000 A 
ENDROOT
BRANCH   1  12
ATOM      7  O1  UNL     1     156.382 157.542 171.611  0.00  0.00    +0.000 OA
ATOM      8  C1  UNL     1     156.733 158.662 170.990  0.00  0.00    +0.000 C 
ATOM      9  N1  UNL     1     156.286 159.827 171.587  0.00  0.00    +0.000 N 
ATOM     10  C2  UNL     1     156.547 161.165 171.202  0.00  0.00    +0.000 C 
ATOM     11  C3  UNL     1     155.302 161.619 170.426  0.00  0.00    +0.000 C 
ATOM     12  N2  UNL     1     154.188 161.363 171.330  0.00  0.00    +0.000 N 
ATOM     13  C18 UNL     1     154.296 160.752 172.622  0.00  0.00    +0.000 C 
ATOM     14  C19 UNL     1     155.374 159.702 172.757  0.00  0.00    +0.000 C 
BRANCH   8  15
ATOM     15  C20 UNL     1     157.514 158.410 169.813  0.00  0.00    +0.000 A 
ATOM     16  C21 UNL     1     158.831 158.766 169.690  0.00  0.00    +0.000 A 
ATOM     17  C22 UNL     1     159.506 158.419 168.516  0.00  0.00    +0.000 A 
ATOM     18  C23 UNL     1     158.907 157.741 167.485  0.00  0.00    +0.000 A 
ATOM     19  C24 UNL     1     157.583 157.378 167.593  0.00  0.00    +0.000 A 
ATOM     20  C25 UNL     1     156.923 157.719 168.748  0.00  0.00    +0.000 A 
ENDBRANCH   8  15
ENDBRANCH   1  12
BRANCH   4  21
ATOM     21  N3  UNL     1     149.151 163.029 169.279  0.00  0.00    +0.000 N 
ATOM     22  C8  UNL     1     148.875 163.284 167.937  0.00  0.00    +0.000 C 
ATOM     23  O2  UNL     1     149.772 163.099 167.065  0.00  0.00    +0.000 OA
ATOM     24  H7  UNL     1     148.356 163.199 169.975  0.00  0.00    +0.000 HD
BRANCH  22  25
ATOM     25  C9  UNL     1     147.555 163.773 167.474  0.00  0.00    +0.000 A 
ATOM     26  C10 UNL     1     147.423 165.109 167.176  0.00  0.00    +0.000 A 
ATOM     27  C11 UNL     1     146.223 165.621 166.737  0.00  0.00    +0.000 A 
ATOM     28  C12 UNL     1     145.134 164.799 166.591  0.00  0.00    +0.000 A 
ATOM     29  O3  UNL     1     144.095 165.610 166.140  0.00  0.00    +0.000 OA
ATOM     30  C13 UNL     1     144.675 166.792 165.635  0.00  0.00    +0.000 C 
ATOM     31  O4  UNL     1     145.870 166.933 166.381  0.00  0.00    +0.000 OA
ATOM     32  C14 UNL     1     145.262 163.462 166.889  0.00  0.00    +0.000 A 
ATOM     33  C15 UNL     1     146.488 162.950 167.334  0.00  0.00    +0.000 A 
ENDBRANCH  22  25
ENDBRANCH   4  21
TORSDOF 4
ENDMDL
MODEL 4
REMARK VINA RESULT:      -7.0      9.702     13.319
REMARK  Name = ./3D_structures\o15_MMV1580505_3D.pdb
REMARK  4 active torsions:
REMARK  status: ('A' for Active; 'I' for Inactive)
REMARK    1  A    between atoms: C1_2  and  C20_27
REMARK    2  A    between atoms: N2_6  and  C4_7
REMARK    3  A    between atoms: C7_10  and  N3_11
REMARK    4  A    between atoms: C8_12  and  C9_14
REMARK                            x       y       z     vdW  Elec       q    Type
REMARK                         _______ _______ _______ _____ _____    ______ ____
ROOT
ATOM      1  C4  UNL     1     158.624 156.471 165.482  0.00  0.00    +0.000 A 
ATOM      2  C5  UNL     1     159.329 157.559 165.928  0.00  0.00    +0.000 A 
ATOM      3  C6  UNL     1     158.891 158.350 166.996  0.00  0.00    +0.000 A 
ATOM      4  C7  UNL     1     157.726 158.053 167.636  0.00  0.00    +0.000 A 
ATOM      5  C16 UNL     1     156.996 156.943 167.192  0.00  0.00    +0.000 A 
ATOM      6  C17 UNL     1     157.449 156.188 166.146  0.00  0.00    +0.000 A 
ENDROOT
BRANCH   1  12
ATOM      7  O1  UNL     1     159.620 151.347 163.615  0.00  0.00    +0.000 OA
ATOM      8  C1  UNL     1     158.876 152.229 162.957  0.00  0.00    +0.000 C 
ATOM      9  N1  UNL     1     159.385 153.515 162.923  0.00  0.00    +0.000 N 
ATOM     10  C2  UNL     1     158.860 154.648 162.254  0.00  0.00    +0.000 C 
ATOM     11  C3  UNL     1     158.120 155.453 163.330  0.00  0.00    +0.000 C 
ATOM     12  N2  UNL     1     159.107 155.665 164.381  0.00  0.00    +0.000 N 
ATOM     13  C18 UNL     1     160.443 155.144 164.377  0.00  0.00    +0.000 C 
ATOM     14  C19 UNL     1     160.613 153.797 163.717  0.00  0.00    +0.000 C 
BRANCH   8  15
ATOM     15  C20 UNL     1     157.684 151.640 162.416  0.00  0.00    +0.000 A 
ATOM     16  C21 UNL     1     157.645 150.983 161.214  0.00  0.00    +0.000 A 
ATOM     17  C22 UNL     1     156.439 150.401 160.816  0.00  0.00    +0.000 A 
ATOM     18  C23 UNL     1     155.296 150.461 161.572  0.00  0.00    +0.000 A 
ATOM     19  C24 UNL     1     155.320 151.119 162.781  0.00  0.00    +0.000 A 
ATOM     20  C25 UNL     1     156.506 151.689 163.171  0.00  0.00    +0.000 A 
ENDBRANCH   8  15
ENDBRANCH   1  12
BRANCH   4  21
ATOM     21  N3  UNL     1     157.205 158.822 168.714  0.00  0.00    +0.000 N 
ATOM     22  C8  UNL     1     157.657 158.745 170.030  0.00  0.00    +0.000 C 
ATOM     23  O2  UNL     1     158.598 157.954 170.325  0.00  0.00    +0.000 OA
ATOM     24  H7  UNL     1     156.409 159.510 168.518  0.00  0.00    +0.000 HD
BRANCH  22  25
ATOM     25  C9  UNL     1     157.076 159.561 171.121  0.00  0.00    +0.000 A 
ATOM     26  C10 UNL     1     157.295 160.919 171.105  0.00  0.00    +0.000 A 
ATOM     27  C11 UNL     1     156.778 161.731 172.090  0.00  0.00    +0.000 A 
ATOM     28  C12 UNL     1     156.033 161.192 173.108  0.00  0.00    +0.000 A 
ATOM     29  O3  UNL     1     155.665 162.258 173.925  0.00  0.00    +0.000 OA
ATOM     30  C13 UNL     1     155.837 163.440 173.174  0.00  0.00    +0.000 C 
ATOM     31  O4  UNL     1     156.876 163.121 172.267  0.00  0.00    +0.000 OA
ATOM     32  C14 UNL     1     155.812 159.833 173.127  0.00  0.00    +0.000 A 
ATOM     33  C15 UNL     1     156.342 159.016 172.120  0.00  0.00    +0.000 A 
ENDBRANCH  22  25
ENDBRANCH   4  21
TORSDOF 4
ENDMDL
MODEL 5
REMARK VINA RESULT:      -6.7      1.971      2.267
REMARK  Name = ./3D_structures\o15_MMV1580505_3D.pdb
REMARK  4 active torsions:
REMARK  status: ('A' for Active; 'I' for Inactive)
REMARK    1  A    between atoms: C1_2  and  C20_27
REMARK    2  A    between atoms: N2_6  and  C4_7
REMARK    3  A    between atoms: C7_10  and  N3_11
REMARK    4  A    between atoms: C8_12  and  C9_14
REMARK                            x       y       z     vdW  Elec       q    Type
REMARK                         _______ _______ _______ _____ _____    ______ ____
ROOT
ATOM      1  C4  UNL     1     148.961 162.566 168.076  0.00  0.00    +0.000 A 
ATOM      2  C5  UNL     1     150.050 163.282 167.653  0.00  0.00    +0.000 A 
ATOM      3  C6  UNL     1     151.287 162.683 167.390  0.00  0.00    +0.000 A 
ATOM      4  C7  UNL     1     151.445 161.340 167.551  0.00  0.00    +0.000 A 
ATOM      5  C16 UNL     1     150.340 160.594 167.982  0.00  0.00    +0.000 A 
ATOM      6  C17 UNL     1     149.143 161.207 168.231  0.00  0.00    +0.000 A 
ENDROOT
BRANCH   1  12
ATOM      7  O1  UNL     1     145.292 166.350 166.357  0.00  0.00    +0.000 OA
ATOM      8  C1  UNL     1     144.970 165.086 166.605  0.00  0.00    +0.000 C 
ATOM      9  N1  UNL     1     145.525 164.556 167.756  0.00  0.00    +0.000 N 
ATOM     10  C2  UNL     1     145.321 163.270 168.316  0.00  0.00    +0.000 C 
ATOM     11  C3  UNL     1     146.538 162.439 167.887  0.00  0.00    +0.000 C 
ATOM     12  N2  UNL     1     147.691 163.212 168.330  0.00  0.00    +0.000 N 
ATOM     13  C18 UNL     1     147.630 164.498 168.961  0.00  0.00    +0.000 C 
ATOM     14  C19 UNL     1     146.502 165.393 168.506  0.00  0.00    +0.000 C 
BRANCH   8  15
ATOM     15  C20 UNL     1     144.101 164.538 165.603  0.00  0.00    +0.000 A 
ATOM     16  C21 UNL     1     142.846 165.024 165.344  0.00  0.00    +0.000 A 
ATOM     17  C22 UNL     1     142.112 164.446 164.306  0.00  0.00    +0.000 A 
ATOM     18  C23 UNL     1     142.591 163.415 163.538  0.00  0.00    +0.000 A 
ATOM     19  C24 UNL     1     143.849 162.915 163.787  0.00  0.00    +0.000 A 
ATOM     20  C25 UNL     1     144.569 163.485 164.807  0.00  0.00    +0.000 A 
ENDBRANCH   8  15
ENDBRANCH   1  12
BRANCH   4  21
ATOM     21  N3  UNL     1     152.676 160.662 167.326  0.00  0.00    +0.000 N 
ATOM     22  C8  UNL     1     153.123 160.233 166.078  0.00  0.00    +0.000 C 
ATOM     23  O2  UNL     1     152.420 160.448 165.050  0.00  0.00    +0.000 OA
ATOM     24  H7  UNL     1     153.311 160.458 168.162  0.00  0.00    +0.000 HD
BRANCH  22  25
ATOM     25  C9  UNL     1     154.411 159.522 165.895  0.00  0.00    +0.000 A 
ATOM     26  C10 UNL     1     155.448 160.198 165.295  0.00  0.00    +0.000 A 
ATOM     27  C11 UNL     1     156.668 159.593 165.100  0.00  0.00    +0.000 A 
ATOM     28  C12 UNL     1     156.868 158.297 165.504  0.00  0.00    +0.000 A 
ATOM     29  O3  UNL     1     158.184 157.986 165.170  0.00  0.00    +0.000 OA
ATOM     30  C13 UNL     1     158.862 159.204 164.957  0.00  0.00    +0.000 C 
ATOM     31  O4  UNL     1     157.847 160.089 164.518  0.00  0.00    +0.000 OA
ATOM     32  C14 UNL     1     155.833 157.617 166.105  0.00  0.00    +0.000 A 
ATOM     33  C15 UNL     1     154.595 158.242 166.298  0.00  0.00    +0.000 A 
ENDBRANCH  22  25
ENDBRANCH   4  21
TORSDOF 4
ENDMDL
MODEL 6
REMARK VINA RESULT:      -6.7      2.821     11.976
REMARK  Name = ./3D_structures\o15_MMV1580505_3D.pdb
REMARK  4 active torsions:
REMARK  status: ('A' for Active; 'I' for Inactive)
REMARK    1  A    between atoms: C1_2  and  C20_27
REMARK    2  A    between atoms: N2_6  and  C4_7
REMARK    3  A    between atoms: C7_10  and  N3_11
REMARK    4  A    between atoms: C8_12  and  C9_14
REMARK                            x       y       z     vdW  Elec       q    Type
REMARK                         _______ _______ _______ _____ _____    ______ ____
ROOT
ATOM      1  C4  UNL     1     153.281 159.787 169.363  0.00  0.00    +0.000 A 
ATOM      2  C5  UNL     1     153.162 160.293 168.095  0.00  0.00    +0.000 A 
ATOM      3  C6  UNL     1     152.041 161.018 167.678  0.00  0.00    +0.000 A 
ATOM      4  C7  UNL     1     151.012 161.245 168.542  0.00  0.00    +0.000 A 
ATOM      5  C16 UNL     1     151.120 160.734 169.842  0.00  0.00    +0.000 A 
ATOM      6  C17 UNL     1     152.229 160.030 170.221  0.00  0.00    +0.000 A 
ENDROOT
BRANCH   1  12
ATOM      7  O1  UNL     1     157.871 157.161 167.699  0.00  0.00    +0.000 OA
ATOM      8  C1  UNL     1     157.878 158.135 168.601  0.00  0.00    +0.000 C 
ATOM      9  N1  UNL     1     156.869 158.065 169.545  0.00  0.00    +0.000 N 
ATOM     10  C2  UNL     1     156.650 158.912 170.660  0.00  0.00    +0.000 C 
ATOM     11  C3  UNL     1     155.556 159.894 170.221  0.00  0.00    +0.000 C 
ATOM     12  N2  UNL     1     154.458 159.049 169.769  0.00  0.00    +0.000 N 
ATOM     13  C18 UNL     1     154.490 157.617 169.707  0.00  0.00    +0.000 C 
ATOM     14  C19 UNL     1     155.832 157.009 169.377  0.00  0.00    +0.000 C 
BRANCH   8  15
ATOM     15  C20 UNL     1     158.952 159.063 168.393  0.00  0.00    +0.000 A 
ATOM     16  C21 UNL     1     158.960 160.335 168.902  0.00  0.00    +0.000 A 
ATOM     17  C22 UNL     1     160.087 161.132 168.681  0.00  0.00    +0.000 A 
ATOM     18  C23 UNL     1     161.180 160.696 167.977  0.00  0.00    +0.000 A 
ATOM     19  C24 UNL     1     161.187 159.421 167.458  0.00  0.00    +0.000 A 
ATOM     20  C25 UNL     1     160.079 158.640 167.677  0.00  0.00    +0.000 A 
ENDBRANCH   8  15
ENDBRANCH   1  12
BRANCH   4  21
ATOM     21  N3  UNL     1     149.831 161.954 168.186  0.00  0.00    +0.000 N 
ATOM     22  C8  UNL     1     149.659 163.328 168.335  0.00  0.00    +0.000 C 
ATOM     23  O2  UNL     1     150.597 164.031 168.810  0.00  0.00    +0.000 OA
ATOM     24  H7  UNL     1     149.007 161.407 167.777  0.00  0.00    +0.000 HD
BRANCH  22  25
ATOM     25  C9  UNL     1     148.405 164.020 167.957  0.00  0.00    +0.000 A 
ATOM     26  C10 UNL     1     148.487 165.104 167.114  0.00  0.00    +0.000 A 
ATOM     27  C11 UNL     1     147.357 165.786 166.725  0.00  0.00    +0.000 A 
ATOM     28  C12 UNL     1     146.123 165.391 167.176  0.00  0.00    +0.000 A 
ATOM     29  O3  UNL     1     145.204 166.270 166.609  0.00  0.00    +0.000 OA
ATOM     30  C13 UNL     1     145.844 166.903 165.523  0.00  0.00    +0.000 C 
ATOM     31  O4  UNL     1     147.213 166.902 165.884  0.00  0.00    +0.000 OA
ATOM     32  C14 UNL     1     146.036 164.307 168.019  0.00  0.00    +0.000 A 
ATOM     33  C15 UNL     1     147.192 163.620 168.410  0.00  0.00    +0.000 A 
ENDBRANCH  22  25
ENDBRANCH   4  21
TORSDOF 4
ENDMDL
MODEL 7
REMARK VINA RESULT:      -6.7     10.193     14.062
REMARK  Name = ./3D_structures\o15_MMV1580505_3D.pdb
REMARK  4 active torsions:
REMARK  status: ('A' for Active; 'I' for Inactive)
REMARK    1  A    between atoms: C1_2  and  C20_27
REMARK    2  A    between atoms: N2_6  and  C4_7
REMARK    3  A    between atoms: C7_10  and  N3_11
REMARK    4  A    between atoms: C8_12  and  C9_14
REMARK                            x       y       z     vdW  Elec       q    Type
REMARK                         _______ _______ _______ _____ _____    ______ ____
ROOT
ATOM      1  C4  UNL     1     158.465 154.369 163.694  0.00  0.00    +0.000 A 
ATOM      2  C5  UNL     1     159.018 153.373 164.456  0.00  0.00    +0.000 A 
ATOM      3  C6  UNL     1     158.833 152.017 164.166  0.00  0.00    +0.000 A 
ATOM      4  C7  UNL     1     158.079 151.642 163.095  0.00  0.00    +0.000 A 
ATOM      5  C16 UNL     1     157.509 152.650 162.307  0.00  0.00    +0.000 A 
ATOM      6  C17 UNL     1     157.708 153.967 162.614  0.00  0.00    +0.000 A 
ENDROOT
BRANCH   1  12
ATOM      7  O1  UNL     1     156.338 158.965 165.950  0.00  0.00    +0.000 OA
ATOM      8  C1  UNL     1     157.509 158.453 166.312  0.00  0.00    +0.000 C 
ATOM      9  N1  UNL     1     158.309 158.026 165.267  0.00  0.00    +0.000 N 
ATOM     10  C2  UNL     1     159.622 157.499 165.327  0.00  0.00    +0.000 C 
ATOM     11  C3  UNL     1     159.459 155.977 165.228  0.00  0.00    +0.000 C 
ATOM     12  N2  UNL     1     158.683 155.764 164.013  0.00  0.00    +0.000 N 
ATOM     13  C18 UNL     1     158.158 156.804 163.177  0.00  0.00    +0.000 C 
ATOM     14  C19 UNL     1     157.736 158.065 163.893  0.00  0.00    +0.000 C 
BRANCH   8  15
ATOM     15  C20 UNL     1     157.688 158.455 167.736  0.00  0.00    +0.000 A 
ATOM     16  C21 UNL     1     158.654 159.186 168.375  0.00  0.00    +0.000 A 
ATOM     17  C22 UNL     1     158.698 159.153 169.771  0.00  0.00    +0.000 A 
ATOM     18  C23 UNL     1     157.818 158.421 170.526  0.00  0.00    +0.000 A 
ATOM     19  C24 UNL     1     156.842 157.679 169.899  0.00  0.00    +0.000 A 
ATOM     20  C25 UNL     1     156.801 157.714 168.527  0.00  0.00    +0.000 A 
ENDBRANCH   8  15
ENDBRANCH   1  12
BRANCH   4  21
ATOM     21  N3  UNL     1     157.827 150.285 162.750  0.00  0.00    +0.000 N 
ATOM     22  C8  UNL     1     157.158 149.374 163.565  0.00  0.00    +0.000 C 
ATOM     23  O2  UNL     1     156.724 149.742 164.694  0.00  0.00    +0.000 OA
ATOM     24  H7  UNL     1     158.170 149.923 161.803  0.00  0.00    +0.000 HD
BRANCH  22  25
ATOM     25  C9  UNL     1     156.927 147.967 163.164  0.00  0.00    +0.000 A 
ATOM     26  C10 UNL     1     155.954 147.708 162.227  0.00  0.00    +0.000 A 
ATOM     27  C11 UNL     1     155.694 146.421 161.812  0.00  0.00    +0.000 A 
ATOM     28  C12 UNL     1     156.408 145.372 162.332  0.00  0.00    +0.000 A 
ATOM     29  O3  UNL     1     155.913 144.224 161.718  0.00  0.00    +0.000 OA
ATOM     30  C13 UNL     1     155.217 144.635 160.561  0.00  0.00    +0.000 C 
ATOM     31  O4  UNL     1     154.761 145.937 160.881  0.00  0.00    +0.000 OA
ATOM     32  C14 UNL     1     157.383 145.626 163.270  0.00  0.00    +0.000 A 
ATOM     33  C15 UNL     1     157.639 146.939 163.686  0.00  0.00    +0.000 A 
ENDBRANCH  22  25
ENDBRANCH   4  21
TORSDOF 4
ENDMDL
MODEL 8
REMARK VINA RESULT:      -6.5      6.302     11.868
REMARK  Name = ./3D_structures\o15_MMV1580505_3D.pdb
REMARK  4 active torsions:
REMARK  status: ('A' for Active; 'I' for Inactive)
REMARK    1  A    between atoms: C1_2  and  C20_27
REMARK    2  A    between atoms: N2_6  and  C4_7
REMARK    3  A    between atoms: C7_10  and  N3_11
REMARK    4  A    between atoms: C8_12  and  C9_14
REMARK                            x       y       z     vdW  Elec       q    Type
REMARK                         _______ _______ _______ _____ _____    ______ ____
ROOT
ATOM      1  C4  UNL     1     144.820 156.291 166.535  0.00  0.00    +0.000 A 
ATOM      2  C5  UNL     1     144.150 157.008 167.491  0.00  0.00    +0.000 A 
ATOM      3  C6  UNL     1     143.846 158.365 167.337  0.00  0.00    +0.000 A 
ATOM      4  C7  UNL     1     144.217 159.024 166.204  0.00  0.00    +0.000 A 
ATOM      5  C16 UNL     1     144.900 158.304 165.217  0.00  0.00    +0.000 A 
ATOM      6  C17 UNL     1     145.183 156.978 165.395  0.00  0.00    +0.000 A 
ENDROOT
BRANCH   1  12
ATOM      7  O1  UNL     1     148.759 152.467 167.306  0.00  0.00    +0.000 OA
ATOM      8  C1  UNL     1     147.707 152.599 168.106  0.00  0.00    +0.000 C 
ATOM      9  N1  UNL     1     146.501 152.800 167.459  0.00  0.00    +0.000 N 
ATOM     10  C2  UNL     1     145.209 152.912 168.029  0.00  0.00    +0.000 C 
ATOM     11  C3  UNL     1     144.914 154.417 168.084  0.00  0.00    +0.000 C 
ATOM     12  N2  UNL     1     145.111 154.885 166.718  0.00  0.00    +0.000 N 
ATOM     13  C18 UNL     1     145.555 154.073 165.623  0.00  0.00    +0.000 C 
ATOM     14  C19 UNL     1     146.527 152.973 165.980  0.00  0.00    +0.000 C 
BRANCH   8  15
ATOM     15  C20 UNL     1     148.062 152.502 169.494  0.00  0.00    +0.000 A 
ATOM     16  C21 UNL     1     148.964 153.335 170.102  0.00  0.00    +0.000 A 
ATOM     17  C22 UNL     1     149.189 153.181 171.472  0.00  0.00    +0.000 A 
ATOM     18  C23 UNL     1     148.549 152.235 172.232  0.00  0.00    +0.000 A 
ATOM     19  C24 UNL     1     147.641 151.389 171.634  0.00  0.00    +0.000 A 
ATOM     20  C25 UNL     1     147.421 151.543 170.288  0.00  0.00    +0.000 A 
ENDBRANCH   8  15
ENDBRANCH   1  12
BRANCH   4  21
ATOM     21  N3  UNL     1     143.963 160.408 165.984  0.00  0.00    +0.000 N 
ATOM     22  C8  UNL     1     144.870 161.429 166.256  0.00  0.00    +0.000 C 
ATOM     23  O2  UNL     1     146.010 161.149 166.725  0.00  0.00    +0.000 OA
ATOM     24  H7  UNL     1     143.015 160.699 165.584  0.00  0.00    +0.000 HD
BRANCH  22  25
ATOM     25  C9  UNL     1     144.557 162.858 166.016  0.00  0.00    +0.000 A 
ATOM     26  C10 UNL     1     145.509 163.796 166.337  0.00  0.00    +0.000 A 
ATOM     27  C11 UNL     1     145.278 165.138 166.134  0.00  0.00    +0.000 A 
ATOM     28  C12 UNL     1     144.085 165.560 165.606  0.00  0.00    +0.000 A 
ATOM     29  O3  UNL     1     144.165 166.948 165.529  0.00  0.00    +0.000 OA
ATOM     30  C13 UNL     1     145.529 167.295 165.619  0.00  0.00    +0.000 C 
ATOM     31  O4  UNL     1     146.098 166.250 166.386  0.00  0.00    +0.000 OA
ATOM     32  C14 UNL     1     143.128 164.624 165.284  0.00  0.00    +0.000 A 
ATOM     33  C15 UNL     1     143.373 163.261 165.494  0.00  0.00    +0.000 A 
ENDBRANCH  22  25
ENDBRANCH   4  21
TORSDOF 4
ENDMDL
MODEL 9
REMARK VINA RESULT:      -6.5      3.382     12.412
REMARK  Name = ./3D_structures\o15_MMV1580505_3D.pdb
REMARK  4 active torsions:
REMARK  status: ('A' for Active; 'I' for Inactive)
REMARK    1  A    between atoms: C1_2  and  C20_27
REMARK    2  A    between atoms: N2_6  and  C4_7
REMARK    3  A    between atoms: C7_10  and  N3_11
REMARK    4  A    between atoms: C8_12  and  C9_14
REMARK                            x       y       z     vdW  Elec       q    Type
REMARK                         _______ _______ _______ _____ _____    ______ ____
ROOT
ATOM      1  C4  UNL     1     154.417 158.907 166.979  0.00  0.00    +0.000 A 
ATOM      2  C5  UNL     1     154.051 159.531 165.815  0.00  0.00    +0.000 A 
ATOM      3  C6  UNL     1     152.973 160.421 165.748  0.00  0.00    +0.000 A 
ATOM      4  C7  UNL     1     152.242 160.696 166.864  0.00  0.00    +0.000 A 
ATOM      5  C16 UNL     1     152.606 160.066 168.061  0.00  0.00    +0.000 A 
ATOM      6  C17 UNL     1     153.665 159.202 168.096  0.00  0.00    +0.000 A 
ENDROOT
BRANCH   1  12
ATOM      7  O1  UNL     1     159.286 157.503 164.728  0.00  0.00    +0.000 OA
ATOM      8  C1  UNL     1     159.127 157.743 166.024  0.00  0.00    +0.000 C 
ATOM      9  N1  UNL     1     157.991 157.190 166.588  0.00  0.00    +0.000 N 
ATOM     10  C2  UNL     1     157.582 157.217 167.944  0.00  0.00    +0.000 C 
ATOM     11  C3  UNL     1     156.534 158.335 168.034  0.00  0.00    +0.000 C 
ATOM     12  N2  UNL     1     155.544 157.999 167.019  0.00  0.00    +0.000 N 
ATOM     13  C18 UNL     1     155.630 156.887 166.118  0.00  0.00    +0.000 C 
ATOM     14  C19 UNL     1     157.025 156.511 165.679  0.00  0.00    +0.000 C 
BRANCH   8  15
ATOM     15  C20 UNL     1     160.190 158.542 166.565  0.00  0.00    +0.000 A 
ATOM     16  C21 UNL     1     161.490 158.117 166.639  0.00  0.00    +0.000 A 
ATOM     17  C22 UNL     1     162.451 159.003 167.133  0.00  0.00    +0.000 A 
ATOM     18  C23 UNL     1     162.148 160.275 167.547  0.00  0.00    +0.000 A 
ATOM     19  C24 UNL     1     160.846 160.716 167.480  0.00  0.00    +0.000 A 
ATOM     20  C25 UNL     1     159.904 159.844 166.993  0.00  0.00    +0.000 A 
ENDBRANCH   8  15
ENDBRANCH   1  12
BRANCH   4  21
ATOM     21  N3  UNL     1     151.120 161.571 166.871  0.00  0.00    +0.000 N 
ATOM     22  C8  UNL     1     151.202 162.960 166.944  0.00  0.00    +0.000 C 
ATOM     23  O2  UNL     1     152.335 163.520 167.002  0.00  0.00    +0.000 OA
ATOM     24  H7  UNL     1     150.138 161.149 166.820  0.00  0.00    +0.000 HD
BRANCH  22  25
ATOM     25  C9  UNL     1     150.003 163.830 166.956  0.00  0.00    +0.000 A 
ATOM     26  C10 UNL     1     148.859 163.354 167.554  0.00  0.00    +0.000 A 
ATOM     27  C11 UNL     1     147.715 164.117 167.600  0.00  0.00    +0.000 A 
ATOM     28  C12 UNL     1     147.699 165.371 167.045  0.00  0.00    +0.000 A 
ATOM     29  O3  UNL     1     146.416 165.871 167.255  0.00  0.00    +0.000 OA
ATOM     30  C13 UNL     1     145.825 165.096 168.274  0.00  0.00    +0.000 C 
ATOM     31  O4  UNL     1     146.454 163.833 168.152  0.00  0.00    +0.000 OA
ATOM     32  C14 UNL     1     148.841 165.851 166.445  0.00  0.00    +0.000 A 
ATOM     33  C15 UNL     1     150.001 165.067 166.404  0.00  0.00    +0.000 A 
ENDBRANCH  22  25
ENDBRANCH   4  21
TORSDOF 4
ENDMDL
