MODEL 1
REMARK VINA RESULT:      -6.8      0.000      0.000
REMARK  Name = ./3D_structures\o16_MMV687798_3D.pdb
REMARK  5 active torsions:
REMARK  status: ('A' for Active; 'I' for Inactive)
REMARK    1  A    between atoms: C2_3  and  N1_4
REMARK    2  A    between atoms: N2_7  and  C5_8
REMARK    3  A    between atoms: C11_15  and  C15_20
REMARK    4  A    between atoms: C15_20  and  O3_22
REMARK    5  A    between atoms: C16_23  and  C18_26
REMARK                            x       y       z     vdW  Elec       q    Type
REMARK                         _______ _______ _______ _____ _____    ______ ____
ROOT
ATOM      1  F1  UNL     1     151.103 164.642 167.048  0.00  0.00    +0.000 F 
ATOM      2  C1  UNL     1     149.744 164.471 167.070  0.00  0.00    +0.000 A 
ATOM      3  C2  UNL     1     149.283 163.295 167.626  0.00  0.00    +0.000 A 
ATOM      4  C8  UNL     1     147.928 163.115 167.654  0.00  0.00    +0.000 A 
ATOM      5  C9  UNL     1     147.023 164.056 167.153  0.00  0.00    +0.000 A 
ATOM      6  N3  UNL     1     145.702 163.833 167.204  0.00  0.00    +0.000 N 
ATOM      7  C10 UNL     1     144.815 164.753 166.713  0.00  0.00    +0.000 A 
ATOM      8  C11 UNL     1     145.301 165.911 166.166  0.00  0.00    +0.000 A 
ATOM      9  C12 UNL     1     146.649 166.170 166.099  0.00  0.00    +0.000 A 
ATOM     10  C13 UNL     1     147.515 165.231 166.599  0.00  0.00    +0.000 A 
ATOM     11  C14 UNL     1     148.884 165.420 166.567  0.00  0.00    +0.000 A 
ATOM     12  O1  UNL     1     147.097 167.221 165.603  0.00  0.00    +0.000 OA
ATOM     13  C16 UNL     1     145.179 162.622 167.803  0.00  0.00    +0.000 C 
ATOM     14  C17 UNL     1     146.135 161.496 167.693  0.00  0.00    +0.000 C 
ATOM     15  O4  UNL     1     147.395 161.946 168.200  0.00  0.00    +0.000 OA
ATOM     16  C18 UNL     1     143.812 162.304 167.247  0.00  0.00    +0.000 C 
ENDROOT
BRANCH   3  17
ATOM     17  N1  UNL     1     150.164 162.301 168.153  0.00  0.00    +0.000 N 
ATOM     18  C3  UNL     1     150.739 161.324 167.249  0.00  0.00    +0.000 C 
ATOM     19  C4  UNL     1     152.052 160.778 167.754  0.00  0.00    +0.000 C 
ATOM     20  N2  UNL     1     151.982 160.292 169.105  0.00  0.00    +0.000 NA
ATOM     21  C5  UNL     1     153.215 160.497 169.835  0.00  0.00    +0.000 C 
ATOM     22  C6  UNL     1     150.826 160.741 169.828  0.00  0.00    +0.000 C 
ATOM     23  C7  UNL     1     150.518 162.211 169.548  0.00  0.00    +0.000 C 
ENDBRANCH   3  17
BRANCH   8  24
ATOM     24  C15 UNL     1     144.331 166.889 165.641  0.00  0.00    +0.000 C 
ATOM     25  O2  UNL     1     143.181 166.534 165.280  0.00  0.00    +0.000 OA
BRANCH  24  26
ATOM     26  O3  UNL     1     144.706 168.217 165.553  0.00  0.00    +0.000 OA
ATOM     27  H14 UNL     1     144.912 168.652 164.652  0.00  0.00    +0.000 HD
ENDBRANCH  24  26
ENDBRANCH   8  24
TORSDOF 3
ENDMDL
MODEL 2
REMARK VINA RESULT:      -6.0      3.394      6.509
REMARK  Name = ./3D_structures\o16_MMV687798_3D.pdb
REMARK  5 active torsions:
REMARK  status: ('A' for Active; 'I' for Inactive)
REMARK    1  A    between atoms: C2_3  and  N1_4
REMARK    2  A    between atoms: N2_7  and  C5_8
REMARK    3  A    between atoms: C11_15  and  C15_20
REMARK    4  A    between atoms: C15_20  and  O3_22
REMARK    5  A    between atoms: C16_23  and  C18_26
REMARK                            x       y       z     vdW  Elec       q    Type
REMARK                         _______ _______ _______ _____ _____    ______ ____
ROOT
ATOM      1  F1  UNL     1     143.730 163.833 168.139  0.00  0.00    +0.000 F 
ATOM      2  C1  UNL     1     145.053 163.510 168.276  0.00  0.00    +0.000 A 
ATOM      3  C2  UNL     1     145.491 162.403 167.577  0.00  0.00    +0.000 A 
ATOM      4  C8  UNL     1     146.811 162.072 167.707  0.00  0.00    +0.000 A 
ATOM      5  C9  UNL     1     147.705 162.797 168.502  0.00  0.00    +0.000 A 
ATOM      6  N3  UNL     1     148.991 162.432 168.597  0.00  0.00    +0.000 N 
ATOM      7  C10 UNL     1     149.866 163.141 169.375  0.00  0.00    +0.000 A 
ATOM      8  C11 UNL     1     149.404 164.234 170.060  0.00  0.00    +0.000 A 
ATOM      9  C12 UNL     1     148.092 164.634 169.983  0.00  0.00    +0.000 A 
ATOM     10  C13 UNL     1     147.237 163.906 169.196  0.00  0.00    +0.000 A 
ATOM     11  C14 UNL     1     145.903 164.246 169.068  0.00  0.00    +0.000 A 
ATOM     12  O1  UNL     1     147.666 165.627 170.603  0.00  0.00    +0.000 OA
ATOM     13  C16 UNL     1     149.493 161.292 167.858  0.00  0.00    +0.000 C 
ATOM     14  C17 UNL     1     148.434 160.285 167.613  0.00  0.00    +0.000 C 
ATOM     15  O4  UNL     1     147.318 160.962 167.029  0.00  0.00    +0.000 OA
ATOM     16  C18 UNL     1     150.719 160.722 168.530  0.00  0.00    +0.000 C 
ENDROOT
BRANCH   3  17
ATOM     17  N1  UNL     1     144.621 161.627 166.750  0.00  0.00    +0.000 N 
ATOM     18  C3  UNL     1     144.433 162.020 165.368  0.00  0.00    +0.000 C 
ATOM     19  C4  UNL     1     144.047 160.855 164.488  0.00  0.00    +0.000 C 
ATOM     20  N2  UNL     1     142.930 160.107 164.996  0.00  0.00    +0.000 NA
ATOM     21  C5  UNL     1     143.021 158.695 164.692  0.00  0.00    +0.000 C 
ATOM     22  C6  UNL     1     142.637 160.362 166.378  0.00  0.00    +0.000 C 
ATOM     23  C7  UNL     1     143.909 160.464 167.218  0.00  0.00    +0.000 C 
ENDBRANCH   3  17
BRANCH   8  24
ATOM     24  C15 UNL     1     150.360 164.984 170.894  0.00  0.00    +0.000 C 
ATOM     25  O2  UNL     1     151.420 165.453 170.406  0.00  0.00    +0.000 OA
BRANCH  24  26
ATOM     26  O3  UNL     1     150.073 165.169 172.233  0.00  0.00    +0.000 OA
ATOM     27  H14 UNL     1     150.806 165.135 172.943  0.00  0.00    +0.000 HD
ENDBRANCH  24  26
ENDBRANCH   8  24
TORSDOF 3
ENDMDL
MODEL 3
REMARK VINA RESULT:      -6.0      3.676      5.356
REMARK  Name = ./3D_structures\o16_MMV687798_3D.pdb
REMARK  5 active torsions:
REMARK  status: ('A' for Active; 'I' for Inactive)
REMARK    1  A    between atoms: C2_3  and  N1_4
REMARK    2  A    between atoms: N2_7  and  C5_8
REMARK    3  A    between atoms: C11_15  and  C15_20
REMARK    4  A    between atoms: C15_20  and  O3_22
REMARK    5  A    between atoms: C16_23  and  C18_26
REMARK                            x       y       z     vdW  Elec       q    Type
REMARK                         _______ _______ _______ _____ _____    ______ ____
ROOT
ATOM      1  F1  UNL     1     151.029 166.192 164.346  0.00  0.00    +0.000 F 
ATOM      2  C1  UNL     1     150.805 165.390 165.433  0.00  0.00    +0.000 A 
ATOM      3  C2  UNL     1     151.808 164.497 165.754  0.00  0.00    +0.000 A 
ATOM      4  C8  UNL     1     151.595 163.692 166.837  0.00  0.00    +0.000 A 
ATOM      5  C9  UNL     1     150.429 163.744 167.609  0.00  0.00    +0.000 A 
ATOM      6  N3  UNL     1     150.267 162.932 168.664  0.00  0.00    +0.000 N 
ATOM      7  C10 UNL     1     149.126 162.982 169.418  0.00  0.00    +0.000 A 
ATOM      8  C11 UNL     1     148.147 163.876 169.076  0.00  0.00    +0.000 A 
ATOM      9  C12 UNL     1     148.282 164.721 168.001  0.00  0.00    +0.000 A 
ATOM     10  C13 UNL     1     149.436 164.651 167.263  0.00  0.00    +0.000 A 
ATOM     11  C14 UNL     1     149.645 165.468 166.168  0.00  0.00    +0.000 A 
ATOM     12  O1  UNL     1     147.395 165.537 167.686  0.00  0.00    +0.000 OA
ATOM     13  C16 UNL     1     151.308 162.000 169.047  0.00  0.00    +0.000 C 
ATOM     14  C17 UNL     1     152.126 161.581 167.885  0.00  0.00    +0.000 C 
ATOM     15  O4  UNL     1     152.568 162.764 167.215  0.00  0.00    +0.000 OA
ATOM     16  C18 UNL     1     150.724 160.842 169.819  0.00  0.00    +0.000 C 
ENDROOT
BRANCH   3  17
ATOM     17  N1  UNL     1     153.019 164.404 165.000  0.00  0.00    +0.000 N 
ATOM     18  C3  UNL     1     153.060 163.528 163.846  0.00  0.00    +0.000 C 
ATOM     19  C4  UNL     1     154.085 163.968 162.829  0.00  0.00    +0.000 C 
ATOM     20  N2  UNL     1     155.389 164.183 163.394  0.00  0.00    +0.000 NA
ATOM     21  C5  UNL     1     156.111 165.253 162.739  0.00  0.00    +0.000 C 
ATOM     22  C6  UNL     1     155.393 164.303 164.824  0.00  0.00    +0.000 C 
ATOM     23  C7  UNL     1     154.216 165.138 165.326  0.00  0.00    +0.000 C 
ENDBRANCH   3  17
BRANCH   8  24
ATOM     24  C15 UNL     1     146.925 163.914 169.900  0.00  0.00    +0.000 C 
ATOM     25  O2  UNL     1     146.189 162.901 170.017  0.00  0.00    +0.000 OA
BRANCH  24  26
ATOM     26  O3  UNL     1     146.595 165.088 170.550  0.00  0.00    +0.000 OA
ATOM     27  H14 UNL     1     147.234 165.522 171.218  0.00  0.00    +0.000 HD
ENDBRANCH  24  26
ENDBRANCH   8  24
TORSDOF 3
ENDMDL
MODEL 4
REMARK VINA RESULT:      -5.9      7.562     10.333
REMARK  Name = ./3D_structures\o16_MMV687798_3D.pdb
REMARK  5 active torsions:
REMARK  status: ('A' for Active; 'I' for Inactive)
REMARK    1  A    between atoms: C2_3  and  N1_4
REMARK    2  A    between atoms: N2_7  and  C5_8
REMARK    3  A    between atoms: C11_15  and  C15_20
REMARK    4  A    between atoms: C15_20  and  O3_22
REMARK    5  A    between atoms: C16_23  and  C18_26
REMARK                            x       y       z     vdW  Elec       q    Type
REMARK                         _______ _______ _______ _____ _____    ______ ____
ROOT
ATOM      1  F1  UNL     1     158.956 157.975 169.661  0.00  0.00    +0.000 F 
ATOM      2  C1  UNL     1     157.653 158.390 169.742  0.00  0.00    +0.000 A 
ATOM      3  C2  UNL     1     156.915 158.327 168.577  0.00  0.00    +0.000 A 
ATOM      4  C8  UNL     1     155.614 158.739 168.648  0.00  0.00    +0.000 A 
ATOM      5  C9  UNL     1     155.024 159.206 169.828  0.00  0.00    +0.000 A 
ATOM      6  N3  UNL     1     153.742 159.598 169.846  0.00  0.00    +0.000 N 
ATOM      7  C10 UNL     1     153.165 160.057 170.999  0.00  0.00    +0.000 A 
ATOM      8  C11 UNL     1     153.922 160.109 172.140  0.00  0.00    +0.000 A 
ATOM      9  C12 UNL     1     155.237 159.715 172.154  0.00  0.00    +0.000 A 
ATOM     10  C13 UNL     1     155.790 159.259 170.985  0.00  0.00    +0.000 A 
ATOM     11  C14 UNL     1     157.107 158.845 170.920  0.00  0.00    +0.000 A 
ATOM     12  O1  UNL     1     155.930 159.760 173.189  0.00  0.00    +0.000 OA
ATOM     13  C16 UNL     1     152.929 159.524 168.649  0.00  0.00    +0.000 C 
ATOM     14  C17 UNL     1     153.744 159.652 167.420  0.00  0.00    +0.000 C 
ATOM     15  O4  UNL     1     154.812 158.705 167.506  0.00  0.00    +0.000 OA
ATOM     16  C18 UNL     1     151.790 160.512 168.720  0.00  0.00    +0.000 C 
ENDROOT
BRANCH   3  17
ATOM     17  N1  UNL     1     157.468 157.858 167.346  0.00  0.00    +0.000 N 
ATOM     18  C3  UNL     1     157.268 156.472 166.972  0.00  0.00    +0.000 C 
ATOM     19  C4  UNL     1     157.322 156.268 165.478  0.00  0.00    +0.000 C 
ATOM     20  N2  UNL     1     158.498 156.830 164.870  0.00  0.00    +0.000 NA
ATOM     21  C5  UNL     1     158.249 157.335 163.537  0.00  0.00    +0.000 C 
ATOM     22  C6  UNL     1     159.190 157.772 165.703  0.00  0.00    +0.000 C 
ATOM     23  C7  UNL     1     158.222 158.692 166.445  0.00  0.00    +0.000 C 
ENDBRANCH   3  17
BRANCH   8  24
ATOM     24  C15 UNL     1     153.283 160.607 173.372  0.00  0.00    +0.000 C 
ATOM     25  O2  UNL     1     152.346 159.973 173.919  0.00  0.00    +0.000 OA
BRANCH  24  26
ATOM     26  O3  UNL     1     153.735 161.791 173.925  0.00  0.00    +0.000 OA
ATOM     27  H14 UNL     1     153.759 162.655 173.382  0.00  0.00    +0.000 HD
ENDBRANCH  24  26
ENDBRANCH   8  24
TORSDOF 3
ENDMDL
MODEL 5
REMARK VINA RESULT:      -5.8      3.126      7.052
REMARK  Name = ./3D_structures\o16_MMV687798_3D.pdb
REMARK  5 active torsions:
REMARK  status: ('A' for Active; 'I' for Inactive)
REMARK    1  A    between atoms: C2_3  and  N1_4
REMARK    2  A    between atoms: N2_7  and  C5_8
REMARK    3  A    between atoms: C11_15  and  C15_20
REMARK    4  A    between atoms: C15_20  and  O3_22
REMARK    5  A    between atoms: C16_23  and  C18_26
REMARK                            x       y       z     vdW  Elec       q    Type
REMARK                         _______ _______ _______ _____ _____    ______ ____
ROOT
ATOM      1  F1  UNL     1     145.821 165.820 169.394  0.00  0.00    +0.000 F 
ATOM      2  C1  UNL     1     146.946 165.041 169.337  0.00  0.00    +0.000 A 
ATOM      3  C2  UNL     1     146.965 164.061 168.365  0.00  0.00    +0.000 A 
ATOM      4  C8  UNL     1     148.084 163.278 168.299  0.00  0.00    +0.000 A 
ATOM      5  C9  UNL     1     149.177 163.435 169.159  0.00  0.00    +0.000 A 
ATOM      6  N3  UNL     1     150.252 162.641 169.053  0.00  0.00    +0.000 N 
ATOM      7  C10 UNL     1     151.321 162.793 169.895  0.00  0.00    +0.000 A 
ATOM      8  C11 UNL     1     151.274 163.772 170.852  0.00  0.00    +0.000 A 
ATOM      9  C12 UNL     1     150.187 164.602 170.985  0.00  0.00    +0.000 A 
ATOM     10  C13 UNL     1     149.130 164.428 170.128  0.00  0.00    +0.000 A 
ATOM     11  C14 UNL     1     148.002 165.223 170.201  0.00  0.00    +0.000 A 
ATOM     12  O1  UNL     1     150.139 165.494 171.853  0.00  0.00    +0.000 OA
ATOM     13  C16 UNL     1     150.319 161.619 168.030  0.00  0.00    +0.000 C 
ATOM     14  C17 UNL     1     148.974 161.128 167.652  0.00  0.00    +0.000 C 
ATOM     15  O4  UNL     1     148.168 162.266 167.341  0.00  0.00    +0.000 OA
ATOM     16  C18 UNL     1     151.266 160.517 168.442  0.00  0.00    +0.000 C 
ENDROOT
BRANCH   3  17
ATOM     17  N1  UNL     1     145.877 163.860 167.461  0.00  0.00    +0.000 N 
ATOM     18  C3  UNL     1     144.750 163.056 167.889  0.00  0.00    +0.000 C 
ATOM     19  C4  UNL     1     143.477 163.422 167.165  0.00  0.00    +0.000 C 
ATOM     20  N2  UNL     1     143.621 163.434 165.735  0.00  0.00    +0.000 NA
ATOM     21  C5  UNL     1     142.797 164.441 165.101  0.00  0.00    +0.000 C 
ATOM     22  C6  UNL     1     144.985 163.467 165.287  0.00  0.00    +0.000 C 
ATOM     23  C7  UNL     1     145.836 164.415 166.131  0.00  0.00    +0.000 C 
ENDBRANCH   3  17
BRANCH   8  24
ATOM     24  C15 UNL     1     152.433 163.919 171.750  0.00  0.00    +0.000 C 
ATOM     25  O2  UNL     1     152.859 162.948 172.425  0.00  0.00    +0.000 OA
BRANCH  24  26
ATOM     26  O3  UNL     1     153.055 165.151 171.839  0.00  0.00    +0.000 OA
ATOM     27  H14 UNL     1     153.707 165.469 171.121  0.00  0.00    +0.000 HD
ENDBRANCH  24  26
ENDBRANCH   8  24
TORSDOF 3
ENDMDL
MODEL 6
REMARK VINA RESULT:      -5.8      7.645     10.430
REMARK  Name = ./3D_structures\o16_MMV687798_3D.pdb
REMARK  5 active torsions:
REMARK  status: ('A' for Active; 'I' for Inactive)
REMARK    1  A    between atoms: C2_3  and  N1_4
REMARK    2  A    between atoms: N2_7  and  C5_8
REMARK    3  A    between atoms: C11_15  and  C15_20
REMARK    4  A    between atoms: C15_20  and  O3_22
REMARK    5  A    between atoms: C16_23  and  C18_26
REMARK                            x       y       z     vdW  Elec       q    Type
REMARK                         _______ _______ _______ _____ _____    ______ ____
ROOT
ATOM      1  F1  UNL     1     156.153 158.284 172.339  0.00  0.00    +0.000 F 
ATOM      2  C1  UNL     1     155.857 158.531 171.025  0.00  0.00    +0.000 A 
ATOM      3  C2  UNL     1     155.020 159.600 170.775  0.00  0.00    +0.000 A 
ATOM      4  C8  UNL     1     154.718 159.855 169.467  0.00  0.00    +0.000 A 
ATOM      5  C9  UNL     1     155.216 159.091 168.405  0.00  0.00    +0.000 A 
ATOM      6  N3  UNL     1     154.891 159.383 167.138  0.00  0.00    +0.000 N 
ATOM      7  C10 UNL     1     155.377 158.635 166.100  0.00  0.00    +0.000 A 
ATOM      8  C11 UNL     1     156.204 157.579 166.377  0.00  0.00    +0.000 A 
ATOM      9  C12 UNL     1     156.556 157.255 167.665  0.00  0.00    +0.000 A 
ATOM     10  C13 UNL     1     156.055 158.021 168.686  0.00  0.00    +0.000 A 
ATOM     11  C14 UNL     1     156.365 157.757 170.007  0.00  0.00    +0.000 A 
ATOM     12  O1  UNL     1     157.309 156.296 167.923  0.00  0.00    +0.000 OA
ATOM     13  C16 UNL     1     154.035 160.512 166.835  0.00  0.00    +0.000 C 
ATOM     14  C17 UNL     1     153.102 160.810 167.945  0.00  0.00    +0.000 C 
ATOM     15  O4  UNL     1     153.875 160.920 169.144  0.00  0.00    +0.000 OA
ATOM     16  C18 UNL     1     153.344 160.311 165.507  0.00  0.00    +0.000 C 
ENDROOT
BRANCH   3  17
ATOM     17  N1  UNL     1     154.485 160.413 171.821  0.00  0.00    +0.000 N 
ATOM     18  C3  UNL     1     155.213 161.597 172.231  0.00  0.00    +0.000 C 
ATOM     19  C4  UNL     1     154.310 162.646 172.833  0.00  0.00    +0.000 C 
ATOM     20  N2  UNL     1     153.468 162.137 173.881  0.00  0.00    +0.000 NA
ATOM     21  C5  UNL     1     152.177 162.789 173.925  0.00  0.00    +0.000 C 
ATOM     22  C6  UNL     1     153.371 160.705 173.907  0.00  0.00    +0.000 C 
ATOM     23  C7  UNL     1     153.248 160.120 172.501  0.00  0.00    +0.000 C 
ENDBRANCH   3  17
BRANCH   8  24
ATOM     24  C15 UNL     1     156.716 156.785 165.246  0.00  0.00    +0.000 C 
ATOM     25  O2  UNL     1     157.475 157.296 164.384  0.00  0.00    +0.000 OA
BRANCH  24  26
ATOM     26  O3  UNL     1     156.350 155.456 165.145  0.00  0.00    +0.000 OA
ATOM     27  H14 UNL     1     155.575 155.076 165.691  0.00  0.00    +0.000 HD
ENDBRANCH  24  26
ENDBRANCH   8  24
TORSDOF 3
ENDMDL
MODEL 7
REMARK VINA RESULT:      -5.8      9.653     12.169
REMARK  Name = ./3D_structures\o16_MMV687798_3D.pdb
REMARK  5 active torsions:
REMARK  status: ('A' for Active; 'I' for Inactive)
REMARK    1  A    between atoms: C2_3  and  N1_4
REMARK    2  A    between atoms: N2_7  and  C5_8
REMARK    3  A    between atoms: C11_15  and  C15_20
REMARK    4  A    between atoms: C15_20  and  O3_22
REMARK    5  A    between atoms: C16_23  and  C18_26
REMARK                            x       y       z     vdW  Elec       q    Type
REMARK                         _______ _______ _______ _____ _____    ______ ____
ROOT
ATOM      1  F1  UNL     1     153.568 157.987 169.599  0.00  0.00    +0.000 F 
ATOM      2  C1  UNL     1     154.839 158.059 169.096  0.00  0.00    +0.000 A 
ATOM      3  C2  UNL     1     155.726 158.863 169.784  0.00  0.00    +0.000 A 
ATOM      4  C8  UNL     1     156.998 158.942 169.290  0.00  0.00    +0.000 A 
ATOM      5  C9  UNL     1     157.418 158.253 168.147  0.00  0.00    +0.000 A 
ATOM      6  N3  UNL     1     158.678 158.363 167.703  0.00  0.00    +0.000 N 
ATOM      7  C10 UNL     1     159.088 157.691 166.583  0.00  0.00    +0.000 A 
ATOM      8  C11 UNL     1     158.186 156.902 165.920  0.00  0.00    +0.000 A 
ATOM      9  C12 UNL     1     156.888 156.768 166.349  0.00  0.00    +0.000 A 
ATOM     10  C13 UNL     1     156.504 157.452 167.474  0.00  0.00    +0.000 A 
ATOM     11  C14 UNL     1     155.216 157.368 167.967  0.00  0.00    +0.000 A 
ATOM     12  O1  UNL     1     156.064 156.051 165.750  0.00  0.00    +0.000 OA
ATOM     13  C16 UNL     1     159.644 159.177 168.412  0.00  0.00    +0.000 C 
ATOM     14  C17 UNL     1     158.995 160.293 169.139  0.00  0.00    +0.000 C 
ATOM     15  O4  UNL     1     157.945 159.740 169.936  0.00  0.00    +0.000 OA
ATOM     16  C18 UNL     1     160.743 159.627 167.480  0.00  0.00    +0.000 C 
ENDROOT
BRANCH   3  17
ATOM     17  N1  UNL     1     155.351 159.586 170.957  0.00  0.00    +0.000 N 
ATOM     18  C3  UNL     1     155.775 159.091 172.252  0.00  0.00    +0.000 C 
ATOM     19  C4  UNL     1     155.875 160.190 173.282  0.00  0.00    +0.000 C 
ATOM     20  N2  UNL     1     154.687 160.994 173.371  0.00  0.00    +0.000 NA
ATOM     21  C5  UNL     1     154.974 162.377 173.690  0.00  0.00    +0.000 C 
ATOM     22  C6  UNL     1     153.802 160.853 172.251  0.00  0.00    +0.000 C 
ATOM     23  C7  UNL     1     154.565 160.795 170.928  0.00  0.00    +0.000 C 
ENDBRANCH   3  17
BRANCH   8  24
ATOM     24  C15 UNL     1     158.646 156.187 164.715  0.00  0.00    +0.000 C 
ATOM     25  O2  UNL     1     159.634 155.410 164.758  0.00  0.00    +0.000 OA
BRANCH  24  26
ATOM     26  O3  UNL     1     157.969 156.381 163.526  0.00  0.00    +0.000 OA
ATOM     27  H14 UNL     1     157.791 157.319 163.164  0.00  0.00    +0.000 HD
ENDBRANCH  24  26
ENDBRANCH   8  24
TORSDOF 3
ENDMDL
MODEL 8
REMARK VINA RESULT:      -5.6      4.387      7.309
REMARK  Name = ./3D_structures\o16_MMV687798_3D.pdb
REMARK  5 active torsions:
REMARK  status: ('A' for Active; 'I' for Inactive)
REMARK    1  A    between atoms: C2_3  and  N1_4
REMARK    2  A    between atoms: N2_7  and  C5_8
REMARK    3  A    between atoms: C11_15  and  C15_20
REMARK    4  A    between atoms: C15_20  and  O3_22
REMARK    5  A    between atoms: C16_23  and  C18_26
REMARK                            x       y       z     vdW  Elec       q    Type
REMARK                         _______ _______ _______ _____ _____    ______ ____
ROOT
ATOM      1  F1  UNL     1     155.158 160.376 164.749  0.00  0.00    +0.000 F 
ATOM      2  C1  UNL     1     154.302 160.227 165.807  0.00  0.00    +0.000 A 
ATOM      3  C2  UNL     1     154.674 159.312 166.772  0.00  0.00    +0.000 A 
ATOM      4  C8  UNL     1     153.826 159.155 167.833  0.00  0.00    +0.000 A 
ATOM      5  C9  UNL     1     152.632 159.871 167.968  0.00  0.00    +0.000 A 
ATOM      6  N3  UNL     1     151.835 159.682 169.030  0.00  0.00    +0.000 N 
ATOM      7  C10 UNL     1     150.666 160.382 169.162  0.00  0.00    +0.000 A 
ATOM      8  C11 UNL     1     150.322 161.282 168.188  0.00  0.00    +0.000 A 
ATOM      9  C12 UNL     1     151.117 161.499 167.089  0.00  0.00    +0.000 A 
ATOM     10  C13 UNL     1     152.283 160.785 166.982  0.00  0.00    +0.000 A 
ATOM     11  C14 UNL     1     153.135 160.948 165.906  0.00  0.00    +0.000 A 
ATOM     12  O1  UNL     1     150.810 162.317 166.202  0.00  0.00    +0.000 OA
ATOM     13  C16 UNL     1     152.203 158.749 170.074  0.00  0.00    +0.000 C 
ATOM     14  C17 UNL     1     153.053 157.652 169.558  0.00  0.00    +0.000 C 
ATOM     15  O4  UNL     1     154.140 158.243 168.843  0.00  0.00    +0.000 OA
ATOM     16  C18 UNL     1     150.976 158.264 170.808  0.00  0.00    +0.000 C 
ENDROOT
BRANCH   3  17
ATOM     17  N1  UNL     1     155.882 158.554 166.683  0.00  0.00    +0.000 N 
ATOM     18  C3  UNL     1     155.866 157.290 165.976  0.00  0.00    +0.000 C 
ATOM     19  C4  UNL     1     157.223 156.923 165.425  0.00  0.00    +0.000 C 
ATOM     20  N2  UNL     1     158.269 156.981 166.409  0.00  0.00    +0.000 NA
ATOM     21  C5  UNL     1     159.538 157.398 165.849  0.00  0.00    +0.000 C 
ATOM     22  C6  UNL     1     157.916 157.712 167.593  0.00  0.00    +0.000 C 
ATOM     23  C7  UNL     1     157.131 158.980 167.264  0.00  0.00    +0.000 C 
ENDBRANCH   3  17
BRANCH   8  24
ATOM     24  C15 UNL     1     149.058 162.025 168.348  0.00  0.00    +0.000 C 
ATOM     25  O2  UNL     1     148.760 162.573 169.439  0.00  0.00    +0.000 OA
BRANCH  24  26
ATOM     26  O3  UNL     1     148.199 162.116 167.269  0.00  0.00    +0.000 OA
ATOM     27  H14 UNL     1     148.543 162.326 166.332  0.00  0.00    +0.000 HD
ENDBRANCH  24  26
ENDBRANCH   8  24
TORSDOF 3
ENDMDL
MODEL 9
REMARK VINA RESULT:      -5.6      6.184      9.236
REMARK  Name = ./3D_structures\o16_MMV687798_3D.pdb
REMARK  5 active torsions:
REMARK  status: ('A' for Active; 'I' for Inactive)
REMARK    1  A    between atoms: C2_3  and  N1_4
REMARK    2  A    between atoms: N2_7  and  C5_8
REMARK    3  A    between atoms: C11_15  and  C15_20
REMARK    4  A    between atoms: C15_20  and  O3_22
REMARK    5  A    between atoms: C16_23  and  C18_26
REMARK                            x       y       z     vdW  Elec       q    Type
REMARK                         _______ _______ _______ _____ _____    ______ ____
ROOT
ATOM      1  F1  UNL     1     156.540 156.382 168.671  0.00  0.00    +0.000 F 
ATOM      2  C1  UNL     1     155.639 157.323 168.249  0.00  0.00    +0.000 A 
ATOM      3  C2  UNL     1     155.901 157.920 167.032  0.00  0.00    +0.000 A 
ATOM      4  C8  UNL     1     155.008 158.862 166.602  0.00  0.00    +0.000 A 
ATOM      5  C9  UNL     1     153.871 159.226 167.332  0.00  0.00    +0.000 A 
ATOM      6  N3  UNL     1     153.024 160.155 166.866  0.00  0.00    +0.000 N 
ATOM      7  C10 UNL     1     151.914 160.513 167.581  0.00  0.00    +0.000 A 
ATOM      8  C11 UNL     1     151.680 159.905 168.786  0.00  0.00    +0.000 A 
ATOM      9  C12 UNL     1     152.528 158.949 169.291  0.00  0.00    +0.000 A 
ATOM     10  C13 UNL     1     153.634 158.610 168.554  0.00  0.00    +0.000 A 
ATOM     11  C14 UNL     1     154.533 157.657 168.995  0.00  0.00    +0.000 A 
ATOM     12  O1  UNL     1     152.321 158.393 170.386  0.00  0.00    +0.000 OA
ATOM     13  C16 UNL     1     153.252 160.786 165.582  0.00  0.00    +0.000 C 
ATOM     14  C17 UNL     1     154.692 160.830 165.238  0.00  0.00    +0.000 C 
ATOM     15  O4  UNL     1     155.214 159.507 165.381  0.00  0.00    +0.000 OA
ATOM     16  C18 UNL     1     152.580 162.137 165.529  0.00  0.00    +0.000 C 
ENDROOT
BRANCH   3  17
ATOM     17  N1  UNL     1     157.045 157.585 166.246  0.00  0.00    +0.000 N 
ATOM     18  C3  UNL     1     156.938 156.515 165.273  0.00  0.00    +0.000 C 
ATOM     19  C4  UNL     1     157.922 156.671 164.139  0.00  0.00    +0.000 C 
ATOM     20  N2  UNL     1     159.275 156.866 164.584  0.00  0.00    +0.000 NA
ATOM     21  C5  UNL     1     160.031 157.732 163.704  0.00  0.00    +0.000 C 
ATOM     22  C6  UNL     1     159.386 157.241 165.965  0.00  0.00    +0.000 C 
ATOM     23  C7  UNL     1     158.316 158.256 166.365  0.00  0.00    +0.000 C 
ENDBRANCH   3  17
BRANCH   8  24
ATOM     24  C15 UNL     1     150.479 160.305 169.542  0.00  0.00    +0.000 C 
ATOM     25  O2  UNL     1     150.352 161.473 169.990  0.00  0.00    +0.000 OA
BRANCH  24  26
ATOM     26  O3  UNL     1     149.483 159.370 169.753  0.00  0.00    +0.000 OA
ATOM     27  H14 UNL     1     148.951 159.349 170.624  0.00  0.00    +0.000 HD
ENDBRANCH  24  26
ENDBRANCH   8  24
TORSDOF 3
ENDMDL
