MODEL 1
REMARK VINA RESULT:      -6.6      0.000      0.000
REMARK  Name = ./3D_structures\o18_MMV1580487_3D.pdb
REMARK  7 active torsions:
REMARK  status: ('A' for Active; 'I' for Inactive)
REMARK    1  A    between atoms: C1_2  and  C20_25
REMARK    2  A    between atoms: N1_3  and  C2_4
REMARK    3  A    between atoms: C5_7  and  C6_8
REMARK    4  A    between atoms: C6_8  and  C17_22
REMARK    5  A    between atoms: N2_9  and  N3_10
REMARK    6  A    between atoms: C7_11  and  C8_13
REMARK    7  A    between atoms: C9_14  and  C10_15
REMARK                            x       y       z     vdW  Elec       q    Type
REMARK                         _______ _______ _______ _____ _____    ______ ____
ROOT
ATOM      1  C6  UNL     1     154.642 159.447 165.774  0.00  0.00    +0.000 C 
ATOM      2  N2  UNL     1     154.889 158.225 166.109  0.00  0.00    +0.000 NA
ATOM      3  C17 UNL     1     155.604 160.139 164.894  0.00  0.00    +0.000 C 
ENDROOT
BRANCH   1   7
ATOM      4  C2  UNL     1     151.097 161.368 167.224  0.00  0.00    +0.000 A 
ATOM      5  C3  UNL     1     151.483 161.417 165.878  0.00  0.00    +0.000 A 
ATOM      6  C4  UNL     1     152.619 160.803 165.401  0.00  0.00    +0.000 A 
ATOM      7  C5  UNL     1     153.428 160.105 166.270  0.00  0.00    +0.000 A 
ATOM      8  C18 UNL     1     153.103 160.021 167.598  0.00  0.00    +0.000 A 
ATOM      9  C19 UNL     1     151.938 160.660 168.039  0.00  0.00    +0.000 A 
BRANCH   4  12
ATOM     10  O1  UNL     1     148.390 160.405 167.112  0.00  0.00    +0.000 OA
ATOM     11  C1  UNL     1     148.597 161.554 167.541  0.00  0.00    +0.000 C 
ATOM     12  N1  UNL     1     149.912 162.035 167.600  0.00  0.00    +0.000 N 
ATOM     13  H1  UNL     1     149.992 163.034 167.982  0.00  0.00    +0.000 HD
BRANCH  11  14
ATOM     14  C20 UNL     1     147.447 162.383 167.976  0.00  0.00    +0.000 A 
ATOM     15  C21 UNL     1     146.672 163.226 167.244  0.00  0.00    +0.000 A 
ATOM     16  C22 UNL     1     145.722 163.777 168.096  0.00  0.00    +0.000 A 
ATOM     17  C23 UNL     1     145.992 163.212 169.334  0.00  0.00    +0.000 A 
ATOM     18  O3  UNL     1     147.014 162.403 169.202  0.00  0.00    +0.000 OA
ENDBRANCH  11  14
ENDBRANCH   4  12
ENDBRANCH   1   7
BRANCH   2  19
ATOM     19  N3  UNL     1     156.035 157.536 165.667  0.00  0.00    +0.000 N 
ATOM     20  C7  UNL     1     157.105 157.330 166.612  0.00  0.00    +0.000 C 
ATOM     21  O2  UNL     1     156.975 157.769 167.780  0.00  0.00    +0.000 OA
ATOM     22  H4  UNL     1     156.123 157.177 164.683  0.00  0.00    +0.000 HD
BRANCH  20  23
ATOM     23  C8  UNL     1     158.331 156.617 166.214  0.00  0.00    +0.000 C 
ATOM     24  C9  UNL     1     159.413 157.492 165.566  0.00  0.00    +0.000 C 
ATOM     25  C16 UNL     1     158.671 156.495 164.745  0.00  0.00    +0.000 C 
BRANCH  24  26
ATOM     26  C10 UNL     1     160.799 157.260 165.977  0.00  0.00    +0.000 A 
ATOM     27  C11 UNL     1     161.649 156.439 165.252  0.00  0.00    +0.000 A 
ATOM     28  C12 UNL     1     162.939 156.215 165.623  0.00  0.00    +0.000 A 
ATOM     29  C13 UNL     1     163.445 156.815 166.757  0.00  0.00    +0.000 A 
ATOM     30  C14 UNL     1     162.619 157.625 167.480  0.00  0.00    +0.000 A 
ATOM     31  C15 UNL     1     161.302 157.858 167.107  0.00  0.00    +0.000 A 
ENDBRANCH  24  26
ENDBRANCH  20  23
ENDBRANCH   2  19
TORSDOF 6
ENDMDL
MODEL 2
REMARK VINA RESULT:      -6.3      4.259      5.810
REMARK  Name = ./3D_structures\o18_MMV1580487_3D.pdb
REMARK  7 active torsions:
REMARK  status: ('A' for Active; 'I' for Inactive)
REMARK    1  A    between atoms: C1_2  and  C20_25
REMARK    2  A    between atoms: N1_3  and  C2_4
REMARK    3  A    between atoms: C5_7  and  C6_8
REMARK    4  A    between atoms: C6_8  and  C17_22
REMARK    5  A    between atoms: N2_9  and  N3_10
REMARK    6  A    between atoms: C7_11  and  C8_13
REMARK    7  A    between atoms: C9_14  and  C10_15
REMARK                            x       y       z     vdW  Elec       q    Type
REMARK                         _______ _______ _______ _____ _____    ______ ____
ROOT
ATOM      1  C6  UNL     1     156.570 157.052 165.750  0.00  0.00    +0.000 C 
ATOM      2  N2  UNL     1     156.562 156.284 164.713  0.00  0.00    +0.000 NA
ATOM      3  C17 UNL     1     157.340 156.623 166.933  0.00  0.00    +0.000 C 
ENDROOT
BRANCH   1   7
ATOM      4  C2  UNL     1     154.391 160.742 165.674  0.00  0.00    +0.000 A 
ATOM      5  C3  UNL     1     155.625 160.583 165.031  0.00  0.00    +0.000 A 
ATOM      6  C4  UNL     1     156.334 159.403 165.048  0.00  0.00    +0.000 A 
ATOM      7  C5  UNL     1     155.824 158.316 165.724  0.00  0.00    +0.000 A 
ATOM      8  C18 UNL     1     154.622 158.409 166.372  0.00  0.00    +0.000 A 
ATOM      9  C19 UNL     1     153.934 159.629 166.328  0.00  0.00    +0.000 A 
BRANCH   4  12
ATOM     10  O1  UNL     1     151.855 161.384 164.482  0.00  0.00    +0.000 OA
ATOM     11  C1  UNL     1     152.517 162.298 165.006  0.00  0.00    +0.000 C 
ATOM     12  N1  UNL     1     153.754 161.998 165.590  0.00  0.00    +0.000 N 
ATOM     13  H1  UNL     1     154.252 162.848 166.015  0.00  0.00    +0.000 HD
BRANCH  11  14
ATOM     14  C20 UNL     1     151.978 163.680 164.996  0.00  0.00    +0.000 A 
ATOM     15  C21 UNL     1     152.420 164.768 164.311  0.00  0.00    +0.000 A 
ATOM     16  C22 UNL     1     151.589 165.836 164.629  0.00  0.00    +0.000 A 
ATOM     17  C23 UNL     1     150.665 165.308 165.519  0.00  0.00    +0.000 A 
ATOM     18  O3  UNL     1     150.943 164.040 165.696  0.00  0.00    +0.000 OA
ENDBRANCH  11  14
ENDBRANCH   4  12
ENDBRANCH   1   7
BRANCH   2  19
ATOM     19  N3  UNL     1     157.257 155.059 164.673  0.00  0.00    +0.000 N 
ATOM     20  C7  UNL     1     157.655 154.552 163.383  0.00  0.00    +0.000 C 
ATOM     21  O2  UNL     1     157.370 155.214 162.357  0.00  0.00    +0.000 OA
ATOM     22  H4  UNL     1     157.486 154.522 165.546  0.00  0.00    +0.000 HD
BRANCH  20  23
ATOM     23  C8  UNL     1     158.385 153.278 163.271  0.00  0.00    +0.000 C 
ATOM     24  C9  UNL     1     158.369 152.403 164.533  0.00  0.00    +0.000 C 
ATOM     25  C16 UNL     1     159.631 153.065 164.101  0.00  0.00    +0.000 C 
BRANCH  24  26
ATOM     26  C10 UNL     1     158.161 150.966 164.350  0.00  0.00    +0.000 A 
ATOM     27  C11 UNL     1     159.169 150.045 164.592  0.00  0.00    +0.000 A 
ATOM     28  C12 UNL     1     158.990 148.706 164.426  0.00  0.00    +0.000 A 
ATOM     29  C13 UNL     1     157.769 148.221 164.004  0.00  0.00    +0.000 A 
ATOM     30  C14 UNL     1     156.768 149.116 163.763  0.00  0.00    +0.000 A 
ATOM     31  C15 UNL     1     156.945 150.484 163.931  0.00  0.00    +0.000 A 
ENDBRANCH  24  26
ENDBRANCH  20  23
ENDBRANCH   2  19
TORSDOF 6
ENDMDL
MODEL 3
REMARK VINA RESULT:      -6.2      1.713      2.198
REMARK  Name = ./3D_structures\o18_MMV1580487_3D.pdb
REMARK  7 active torsions:
REMARK  status: ('A' for Active; 'I' for Inactive)
REMARK    1  A    between atoms: C1_2  and  C20_25
REMARK    2  A    between atoms: N1_3  and  C2_4
REMARK    3  A    between atoms: C5_7  and  C6_8
REMARK    4  A    between atoms: C6_8  and  C17_22
REMARK    5  A    between atoms: N2_9  and  N3_10
REMARK    6  A    between atoms: C7_11  and  C8_13
REMARK    7  A    between atoms: C9_14  and  C10_15
REMARK                            x       y       z     vdW  Elec       q    Type
REMARK                         _______ _______ _______ _____ _____    ______ ____
ROOT
ATOM      1  C6  UNL     1     154.131 159.143 168.501  0.00  0.00    +0.000 C 
ATOM      2  N2  UNL     1     154.806 159.050 167.405  0.00  0.00    +0.000 NA
ATOM      3  C17 UNL     1     154.724 158.598 169.737  0.00  0.00    +0.000 C 
ENDROOT
BRANCH   1   7
ATOM      4  C2  UNL     1     150.271 161.004 168.462  0.00  0.00    +0.000 A 
ATOM      5  C3  UNL     1     151.266 161.315 167.528  0.00  0.00    +0.000 A 
ATOM      6  C4  UNL     1     152.509 160.724 167.530  0.00  0.00    +0.000 A 
ATOM      7  C5  UNL     1     152.809 159.780 168.487  0.00  0.00    +0.000 A 
ATOM      8  C18 UNL     1     151.877 159.433 169.429  0.00  0.00    +0.000 A 
ATOM      9  C19 UNL     1     150.625 160.059 169.388  0.00  0.00    +0.000 A 
BRANCH   4  12
ATOM     10  O1  UNL     1     149.461 163.458 169.721  0.00  0.00    +0.000 OA
ATOM     11  C1  UNL     1     148.650 162.871 168.983  0.00  0.00    +0.000 C 
ATOM     12  N1  UNL     1     149.033 161.673 168.364  0.00  0.00    +0.000 N 
ATOM     13  H1  UNL     1     148.269 161.239 167.749  0.00  0.00    +0.000 HD
BRANCH  11  14
ATOM     14  C20 UNL     1     147.301 163.452 168.781  0.00  0.00    +0.000 A 
ATOM     15  C21 UNL     1     146.106 162.820 168.647  0.00  0.00    +0.000 A 
ATOM     16  C22 UNL     1     145.128 163.792 168.478  0.00  0.00    +0.000 A 
ATOM     17  C23 UNL     1     145.818 164.995 168.520  0.00  0.00    +0.000 A 
ATOM     18  O3  UNL     1     147.088 164.733 168.701  0.00  0.00    +0.000 OA
ENDBRANCH  11  14
ENDBRANCH   4  12
ENDBRANCH   1   7
BRANCH   2  19
ATOM     19  N3  UNL     1     156.080 158.451 167.350  0.00  0.00    +0.000 N 
ATOM     20  C7  UNL     1     156.232 157.261 166.550  0.00  0.00    +0.000 C 
ATOM     21  O2  UNL     1     155.234 156.809 165.940  0.00  0.00    +0.000 OA
ATOM     22  H4  UNL     1     156.903 158.847 167.869  0.00  0.00    +0.000 HD
BRANCH  20  23
ATOM     23  C8  UNL     1     157.537 156.586 166.449  0.00  0.00    +0.000 C 
ATOM     24  C9  UNL     1     158.540 157.245 165.491  0.00  0.00    +0.000 C 
ATOM     25  C16 UNL     1     157.931 155.931 165.144  0.00  0.00    +0.000 C 
BRANCH  24  26
ATOM     26  C10 UNL     1     159.930 157.345 165.940  0.00  0.00    +0.000 A 
ATOM     27  C11 UNL     1     160.286 158.083 167.058  0.00  0.00    +0.000 A 
ATOM     28  C12 UNL     1     161.574 158.185 167.485  0.00  0.00    +0.000 A 
ATOM     29  C13 UNL     1     162.582 157.539 166.799  0.00  0.00    +0.000 A 
ATOM     30  C14 UNL     1     162.245 156.809 165.697  0.00  0.00    +0.000 A 
ATOM     31  C15 UNL     1     160.932 156.701 165.256  0.00  0.00    +0.000 A 
ENDBRANCH  24  26
ENDBRANCH  20  23
ENDBRANCH   2  19
TORSDOF 6
ENDMDL
MODEL 4
REMARK VINA RESULT:      -6.1      6.371     10.924
REMARK  Name = ./3D_structures\o18_MMV1580487_3D.pdb
REMARK  7 active torsions:
REMARK  status: ('A' for Active; 'I' for Inactive)
REMARK    1  A    between atoms: C1_2  and  C20_25
REMARK    2  A    between atoms: N1_3  and  C2_4
REMARK    3  A    between atoms: C5_7  and  C6_8
REMARK    4  A    between atoms: C6_8  and  C17_22
REMARK    5  A    between atoms: N2_9  and  N3_10
REMARK    6  A    between atoms: C7_11  and  C8_13
REMARK    7  A    between atoms: C9_14  and  C10_15
REMARK                            x       y       z     vdW  Elec       q    Type
REMARK                         _______ _______ _______ _____ _____    ______ ____
ROOT
ATOM      1  C6  UNL     1     158.925 156.511 165.593  0.00  0.00    +0.000 C 
ATOM      2  N2  UNL     1     158.092 156.885 166.506  0.00  0.00    +0.000 NA
ATOM      3  C17 UNL     1     160.239 157.177 165.529  0.00  0.00    +0.000 C 
ENDROOT
BRANCH   1   7
ATOM      4  C2  UNL     1     157.817 153.404 162.858  0.00  0.00    +0.000 A 
ATOM      5  C3  UNL     1     158.573 153.158 164.011  0.00  0.00    +0.000 A 
ATOM      6  C4  UNL     1     158.934 154.147 164.897  0.00  0.00    +0.000 A 
ATOM      7  C5  UNL     1     158.545 155.447 164.657  0.00  0.00    +0.000 A 
ATOM      8  C18 UNL     1     157.805 155.751 163.546  0.00  0.00    +0.000 A 
ATOM      9  C19 UNL     1     157.459 154.712 162.671  0.00  0.00    +0.000 A 
BRANCH   4  12
ATOM     10  O1  UNL     1     155.605 151.577 163.050  0.00  0.00    +0.000 OA
ATOM     11  C1  UNL     1     156.423 151.428 162.125  0.00  0.00    +0.000 C 
ATOM     12  N1  UNL     1     157.505 152.311 162.020  0.00  0.00    +0.000 N 
ATOM     13  H1  UNL     1     158.157 152.104 161.194  0.00  0.00    +0.000 HD
BRANCH  11  14
ATOM     14  C20 UNL     1     156.232 150.318 161.160  0.00  0.00    +0.000 A 
ATOM     15  C21 UNL     1     156.621 150.235 159.860  0.00  0.00    +0.000 A 
ATOM     16  C22 UNL     1     156.213 148.999 159.373  0.00  0.00    +0.000 A 
ATOM     17  C23 UNL     1     155.579 148.391 160.447  0.00  0.00    +0.000 A 
ATOM     18  O3  UNL     1     155.622 149.211 161.467  0.00  0.00    +0.000 OA
ENDBRANCH  11  14
ENDBRANCH   4  12
ENDBRANCH   1   7
BRANCH   2  19
ATOM     19  N3  UNL     1     158.394 157.899 167.436  0.00  0.00    +0.000 N 
ATOM     20  C7  UNL     1     157.782 157.824 168.739  0.00  0.00    +0.000 C 
ATOM     21  O2  UNL     1     157.011 156.867 168.992  0.00  0.00    +0.000 OA
ATOM     22  H4  UNL     1     159.043 158.692 167.202  0.00  0.00    +0.000 HD
BRANCH  20  23
ATOM     23  C8  UNL     1     158.055 158.852 169.757  0.00  0.00    +0.000 C 
ATOM     24  C9  UNL     1     156.950 159.901 169.939  0.00  0.00    +0.000 C 
ATOM     25  C16 UNL     1     158.249 160.288 169.323  0.00  0.00    +0.000 C 
BRANCH  24  26
ATOM     26  C10 UNL     1     156.610 160.288 171.308  0.00  0.00    +0.000 A 
ATOM     27  C11 UNL     1     155.815 159.492 172.118  0.00  0.00    +0.000 A 
ATOM     28  C12 UNL     1     155.491 159.840 173.393  0.00  0.00    +0.000 A 
ATOM     29  C13 UNL     1     155.960 161.024 173.925  0.00  0.00    +0.000 A 
ATOM     30  C14 UNL     1     156.744 161.818 173.139  0.00  0.00    +0.000 A 
ATOM     31  C15 UNL     1     157.078 161.467 171.837  0.00  0.00    +0.000 A 
ENDBRANCH  24  26
ENDBRANCH  20  23
ENDBRANCH   2  19
TORSDOF 6
ENDMDL
MODEL 5
REMARK VINA RESULT:      -5.9      2.196     12.135
REMARK  Name = ./3D_structures\o18_MMV1580487_3D.pdb
REMARK  7 active torsions:
REMARK  status: ('A' for Active; 'I' for Inactive)
REMARK    1  A    between atoms: C1_2  and  C20_25
REMARK    2  A    between atoms: N1_3  and  C2_4
REMARK    3  A    between atoms: C5_7  and  C6_8
REMARK    4  A    between atoms: C6_8  and  C17_22
REMARK    5  A    between atoms: N2_9  and  N3_10
REMARK    6  A    between atoms: C7_11  and  C8_13
REMARK    7  A    between atoms: C9_14  and  C10_15
REMARK                            x       y       z     vdW  Elec       q    Type
REMARK                         _______ _______ _______ _____ _____    ______ ____
ROOT
ATOM      1  C6  UNL     1     152.969 159.288 168.472  0.00  0.00    +0.000 C 
ATOM      2  N2  UNL     1     152.382 160.270 167.876  0.00  0.00    +0.000 NA
ATOM      3  C17 UNL     1     152.532 158.937 169.837  0.00  0.00    +0.000 C 
ENDROOT
BRANCH   1   7
ATOM      4  C2  UNL     1     156.095 157.152 166.465  0.00  0.00    +0.000 A 
ATOM      5  C3  UNL     1     155.881 157.052 167.845  0.00  0.00    +0.000 A 
ATOM      6  C4  UNL     1     154.880 157.732 168.501  0.00  0.00    +0.000 A 
ATOM      7  C5  UNL     1     154.039 158.556 167.785  0.00  0.00    +0.000 A 
ATOM      8  C18 UNL     1     154.198 158.696 166.432  0.00  0.00    +0.000 A 
ATOM      9  C19 UNL     1     155.230 157.984 165.806  0.00  0.00    +0.000 A 
BRANCH   4  12
ATOM     10  O1  UNL     1     158.806 157.980 165.985  0.00  0.00    +0.000 OA
ATOM     11  C1  UNL     1     158.471 156.823 165.670  0.00  0.00    +0.000 C 
ATOM     12  N1  UNL     1     157.153 156.409 165.900  0.00  0.00    +0.000 N 
ATOM     13  H1  UNL     1     156.957 155.399 165.596  0.00  0.00    +0.000 HD
BRANCH  11  14
ATOM     14  C20 UNL     1     159.475 155.918 165.062  0.00  0.00    +0.000 A 
ATOM     15  C21 UNL     1     159.311 154.659 164.575  0.00  0.00    +0.000 A 
ATOM     16  C22 UNL     1     160.545 154.221 164.109  0.00  0.00    +0.000 A 
ATOM     17  C23 UNL     1     161.408 155.279 164.352  0.00  0.00    +0.000 A 
ATOM     18  O3  UNL     1     160.724 156.246 164.911  0.00  0.00    +0.000 OA
ENDBRANCH  11  14
ENDBRANCH   4  12
ENDBRANCH   1   7
BRANCH   2  19
ATOM     19  N3  UNL     1     151.348 161.013 168.479  0.00  0.00    +0.000 N 
ATOM     20  C7  UNL     1     150.233 161.409 167.654  0.00  0.00    +0.000 C 
ATOM     21  O2  UNL     1     150.228 161.081 166.443  0.00  0.00    +0.000 OA
ATOM     22  H4  UNL     1     151.373 161.277 169.495  0.00  0.00    +0.000 HD
BRANCH  20  23
ATOM     23  C8  UNL     1     149.119 162.187 168.222  0.00  0.00    +0.000 C 
ATOM     24  C9  UNL     1     149.222 163.707 168.035  0.00  0.00    +0.000 C 
ATOM     25  C16 UNL     1     149.383 163.110 169.390  0.00  0.00    +0.000 C 
BRANCH  24  26
ATOM     26  C10 UNL     1     148.002 164.421 167.657  0.00  0.00    +0.000 A 
ATOM     27  C11 UNL     1     147.920 165.159 166.487  0.00  0.00    +0.000 A 
ATOM     28  C12 UNL     1     146.791 165.828 166.123  0.00  0.00    +0.000 A 
ATOM     29  C13 UNL     1     145.674 165.785 166.931  0.00  0.00    +0.000 A 
ATOM     30  C14 UNL     1     145.741 165.063 168.086  0.00  0.00    +0.000 A 
ATOM     31  C15 UNL     1     146.889 164.378 168.462  0.00  0.00    +0.000 A 
ENDBRANCH  24  26
ENDBRANCH  20  23
ENDBRANCH   2  19
TORSDOF 6
ENDMDL
MODEL 6
REMARK VINA RESULT:      -5.9      2.677      3.780
REMARK  Name = ./3D_structures\o18_MMV1580487_3D.pdb
REMARK  7 active torsions:
REMARK  status: ('A' for Active; 'I' for Inactive)
REMARK    1  A    between atoms: C1_2  and  C20_25
REMARK    2  A    between atoms: N1_3  and  C2_4
REMARK    3  A    between atoms: C5_7  and  C6_8
REMARK    4  A    between atoms: C6_8  and  C17_22
REMARK    5  A    between atoms: N2_9  and  N3_10
REMARK    6  A    between atoms: C7_11  and  C8_13
REMARK    7  A    between atoms: C9_14  and  C10_15
REMARK                            x       y       z     vdW  Elec       q    Type
REMARK                         _______ _______ _______ _____ _____    ______ ____
ROOT
ATOM      1  C6  UNL     1     155.213 157.659 166.925  0.00  0.00    +0.000 C 
ATOM      2  N2  UNL     1     155.313 157.191 165.726  0.00  0.00    +0.000 NA
ATOM      3  C17 UNL     1     156.137 157.146 167.955  0.00  0.00    +0.000 C 
ENDROOT
BRANCH   1   7
ATOM      4  C2  UNL     1     152.248 160.627 167.800  0.00  0.00    +0.000 A 
ATOM      5  C3  UNL     1     152.616 159.635 168.719  0.00  0.00    +0.000 A 
ATOM      6  C4  UNL     1     153.567 158.678 168.449  0.00  0.00    +0.000 A 
ATOM      7  C5  UNL     1     154.198 158.675 167.225  0.00  0.00    +0.000 A 
ATOM      8  C18 UNL     1     153.882 159.619 166.284  0.00  0.00    +0.000 A 
ATOM      9  C19 UNL     1     152.909 160.575 166.602  0.00  0.00    +0.000 A 
BRANCH   4  12
ATOM     10  O1  UNL     1     149.562 160.894 166.811  0.00  0.00    +0.000 OA
ATOM     11  C1  UNL     1     149.953 161.678 167.695  0.00  0.00    +0.000 C 
ATOM     12  N1  UNL     1     151.260 161.557 168.185  0.00  0.00    +0.000 N 
ATOM     13  H1  UNL     1     151.508 162.275 168.942  0.00  0.00    +0.000 HD
BRANCH  11  14
ATOM     14  C20 UNL     1     149.027 162.718 168.204  0.00  0.00    +0.000 A 
ATOM     15  C21 UNL     1     148.643 163.884 167.621  0.00  0.00    +0.000 A 
ATOM     16  C22 UNL     1     147.762 164.521 168.487  0.00  0.00    +0.000 A 
ATOM     17  C23 UNL     1     147.665 163.670 169.578  0.00  0.00    +0.000 A 
ATOM     18  O3  UNL     1     148.428 162.628 169.355  0.00  0.00    +0.000 OA
ENDBRANCH  11  14
ENDBRANCH   4  12
ENDBRANCH   1   7
BRANCH   2  19
ATOM     19  N3  UNL     1     156.266 156.215 165.371  0.00  0.00    +0.000 N 
ATOM     20  C7  UNL     1     157.385 156.628 164.562  0.00  0.00    +0.000 C 
ATOM     21  O2  UNL     1     157.467 157.829 164.207  0.00  0.00    +0.000 OA
ATOM     22  H4  UNL     1     156.177 155.215 165.679  0.00  0.00    +0.000 HD
BRANCH  20  23
ATOM     23  C8  UNL     1     158.416 155.659 164.156  0.00  0.00    +0.000 C 
ATOM     24  C9  UNL     1     157.949 154.587 163.161  0.00  0.00    +0.000 C 
ATOM     25  C16 UNL     1     158.270 154.210 164.566  0.00  0.00    +0.000 C 
BRANCH  24  26
ATOM     26  C10 UNL     1     158.852 154.255 162.058  0.00  0.00    +0.000 A 
ATOM     27  C11 UNL     1     159.679 153.143 162.100  0.00  0.00    +0.000 A 
ATOM     28  C12 UNL     1     160.524 152.824 161.081  0.00  0.00    +0.000 A 
ATOM     29  C13 UNL     1     160.577 153.618 159.954  0.00  0.00    +0.000 A 
ATOM     30  C14 UNL     1     159.768 154.715 159.901  0.00  0.00    +0.000 A 
ATOM     31  C15 UNL     1     158.904 155.047 160.937  0.00  0.00    +0.000 A 
ENDBRANCH  24  26
ENDBRANCH  20  23
ENDBRANCH   2  19
TORSDOF 6
ENDMDL
MODEL 7
REMARK VINA RESULT:      -5.9      2.105      2.537
REMARK  Name = ./3D_structures\o18_MMV1580487_3D.pdb
REMARK  7 active torsions:
REMARK  status: ('A' for Active; 'I' for Inactive)
REMARK    1  A    between atoms: C1_2  and  C20_25
REMARK    2  A    between atoms: N1_3  and  C2_4
REMARK    3  A    between atoms: C5_7  and  C6_8
REMARK    4  A    between atoms: C6_8  and  C17_22
REMARK    5  A    between atoms: N2_9  and  N3_10
REMARK    6  A    between atoms: C7_11  and  C8_13
REMARK    7  A    between atoms: C9_14  and  C10_15
REMARK                            x       y       z     vdW  Elec       q    Type
REMARK                         _______ _______ _______ _____ _____    ______ ____
ROOT
ATOM      1  C6  UNL     1     155.054 159.185 166.490  0.00  0.00    +0.000 C 
ATOM      2  N2  UNL     1     156.221 159.736 166.490  0.00  0.00    +0.000 NA
ATOM      3  C17 UNL     1     154.975 157.714 166.414  0.00  0.00    +0.000 C 
ENDROOT
BRANCH   1   7
ATOM      4  C2  UNL     1     151.550 161.642 166.712  0.00  0.00    +0.000 A 
ATOM      5  C3  UNL     1     152.170 161.322 165.497  0.00  0.00    +0.000 A 
ATOM      6  C4  UNL     1     153.294 160.533 165.413  0.00  0.00    +0.000 A 
ATOM      7  C5  UNL     1     153.854 160.026 166.566  0.00  0.00    +0.000 A 
ATOM      8  C18 UNL     1     153.294 160.305 167.784  0.00  0.00    +0.000 A 
ATOM      9  C19 UNL     1     152.149 161.111 167.822  0.00  0.00    +0.000 A 
BRANCH   4  12
ATOM     10  O1  UNL     1     151.380 164.500 166.973  0.00  0.00    +0.000 OA
ATOM     11  C1  UNL     1     150.331 163.853 166.806  0.00  0.00    +0.000 C 
ATOM     12  N1  UNL     1     150.401 162.460 166.677  0.00  0.00    +0.000 N 
ATOM     13  H1  UNL     1     149.448 161.989 166.538  0.00  0.00    +0.000 HD
BRANCH  11  14
ATOM     14  C20 UNL     1     149.036 164.574 166.749  0.00  0.00    +0.000 A 
ATOM     15  C21 UNL     1     148.772 165.828 166.297  0.00  0.00    +0.000 A 
ATOM     16  C22 UNL     1     147.409 166.055 166.449  0.00  0.00    +0.000 A 
ATOM     17  C23 UNL     1     146.918 164.883 167.003  0.00  0.00    +0.000 A 
ATOM     18  O3  UNL     1     147.917 164.050 167.156  0.00  0.00    +0.000 OA
ENDBRANCH  11  14
ENDBRANCH   4  12
ENDBRANCH   1   7
BRANCH   2  19
ATOM     19  N3  UNL     1     157.412 158.987 166.421  0.00  0.00    +0.000 N 
ATOM     20  C7  UNL     1     158.298 159.022 167.558  0.00  0.00    +0.000 C 
ATOM     21  O2  UNL     1     157.978 159.712 168.555  0.00  0.00    +0.000 OA
ATOM     22  H4  UNL     1     157.660 158.416 165.575  0.00  0.00    +0.000 HD
BRANCH  20  23
ATOM     23  C8  UNL     1     159.559 158.261 167.550  0.00  0.00    +0.000 C 
ATOM     24  C9  UNL     1     160.638 158.795 166.596  0.00  0.00    +0.000 C 
ATOM     25  C16 UNL     1     159.957 157.503 166.303  0.00  0.00    +0.000 C 
BRANCH  24  26
ATOM     26  C10 UNL     1     162.013 158.835 167.094  0.00  0.00    +0.000 A 
ATOM     27  C11 UNL     1     162.660 160.032 167.358  0.00  0.00    +0.000 A 
ATOM     28  C12 UNL     1     163.939 160.084 167.821  0.00  0.00    +0.000 A 
ATOM     29  C13 UNL     1     164.640 158.916 168.045  0.00  0.00    +0.000 A 
ATOM     30  C14 UNL     1     164.015 157.731 167.788  0.00  0.00    +0.000 A 
ATOM     31  C15 UNL     1     162.710 157.672 167.316  0.00  0.00    +0.000 A 
ENDBRANCH  24  26
ENDBRANCH  20  23
ENDBRANCH   2  19
TORSDOF 6
ENDMDL
MODEL 8
REMARK VINA RESULT:      -5.9      1.971      2.436
REMARK  Name = ./3D_structures\o18_MMV1580487_3D.pdb
REMARK  7 active torsions:
REMARK  status: ('A' for Active; 'I' for Inactive)
REMARK    1  A    between atoms: C1_2  and  C20_25
REMARK    2  A    between atoms: N1_3  and  C2_4
REMARK    3  A    between atoms: C5_7  and  C6_8
REMARK    4  A    between atoms: C6_8  and  C17_22
REMARK    5  A    between atoms: N2_9  and  N3_10
REMARK    6  A    between atoms: C7_11  and  C8_13
REMARK    7  A    between atoms: C9_14  and  C10_15
REMARK                            x       y       z     vdW  Elec       q    Type
REMARK                         _______ _______ _______ _____ _____    ______ ____
ROOT
ATOM      1  C6  UNL     1     154.134 158.615 168.133  0.00  0.00    +0.000 C 
ATOM      2  N2  UNL     1     155.119 159.070 167.434  0.00  0.00    +0.000 NA
ATOM      3  C17 UNL     1     154.271 157.282 168.749  0.00  0.00    +0.000 C 
ENDROOT
BRANCH   1   7
ATOM      4  C2  UNL     1     150.596 160.986 168.609  0.00  0.00    +0.000 A 
ATOM      5  C3  UNL     1     151.545 161.240 167.610  0.00  0.00    +0.000 A 
ATOM      6  C4  UNL     1     152.684 160.486 167.447  0.00  0.00    +0.000 A 
ATOM      7  C5  UNL     1     152.923 159.427 168.296  0.00  0.00    +0.000 A 
ATOM      8  C18 UNL     1     152.032 159.128 169.292  0.00  0.00    +0.000 A 
ATOM      9  C19 UNL     1     150.885 159.922 169.421  0.00  0.00    +0.000 A 
BRANCH   4  12
ATOM     10  O1  UNL     1     150.291 163.452 170.055  0.00  0.00    +0.000 OA
ATOM     11  C1  UNL     1     149.328 163.026 169.391  0.00  0.00    +0.000 C 
ATOM     12  N1  UNL     1     149.465 161.826 168.682  0.00  0.00    +0.000 N 
ATOM     13  H1  UNL     1     148.584 161.538 168.141  0.00  0.00    +0.000 HD
BRANCH  11  14
ATOM     14  C20 UNL     1     148.064 163.800 169.370  0.00  0.00    +0.000 A 
ATOM     15  C21 UNL     1     147.296 164.159 168.308  0.00  0.00    +0.000 A 
ATOM     16  C22 UNL     1     146.210 164.878 168.793  0.00  0.00    +0.000 A 
ATOM     17  C23 UNL     1     146.397 164.911 170.167  0.00  0.00    +0.000 A 
ATOM     18  O3  UNL     1     147.499 164.262 170.447  0.00  0.00    +0.000 OA
ENDBRANCH  11  14
ENDBRANCH   4  12
ENDBRANCH   1   7
BRANCH   2  19
ATOM     19  N3  UNL     1     156.309 158.343 167.239  0.00  0.00    +0.000 N 
ATOM     20  C7  UNL     1     157.507 158.825 167.883  0.00  0.00    +0.000 C 
ATOM     21  O2  UNL     1     157.443 159.863 168.583  0.00  0.00    +0.000 OA
ATOM     22  H4  UNL     1     156.340 157.475 166.648  0.00  0.00    +0.000 HD
BRANCH  20  23
ATOM     23  C8  UNL     1     158.785 158.111 167.721  0.00  0.00    +0.000 C 
ATOM     24  C9  UNL     1     159.734 158.703 166.669  0.00  0.00    +0.000 C 
ATOM     25  C16 UNL     1     159.070 157.394 166.420  0.00  0.00    +0.000 C 
BRANCH  24  26
ATOM     26  C10 UNL     1     161.154 158.784 167.016  0.00  0.00    +0.000 A 
ATOM     27  C11 UNL     1     161.796 160.000 167.187  0.00  0.00    +0.000 A 
ATOM     28  C12 UNL     1     163.116 160.089 167.509  0.00  0.00    +0.000 A 
ATOM     29  C13 UNL     1     163.863 158.942 167.679  0.00  0.00    +0.000 A 
ATOM     30  C14 UNL     1     163.243 157.738 167.514  0.00  0.00    +0.000 A 
ATOM     31  C15 UNL     1     161.897 157.641 167.185  0.00  0.00    +0.000 A 
ENDBRANCH  24  26
ENDBRANCH  20  23
ENDBRANCH   2  19
TORSDOF 6
ENDMDL
MODEL 9
REMARK VINA RESULT:      -5.8      9.021     13.756
REMARK  Name = ./3D_structures\o18_MMV1580487_3D.pdb
REMARK  7 active torsions:
REMARK  status: ('A' for Active; 'I' for Inactive)
REMARK    1  A    between atoms: C1_2  and  C20_25
REMARK    2  A    between atoms: N1_3  and  C2_4
REMARK    3  A    between atoms: C5_7  and  C6_8
REMARK    4  A    between atoms: C6_8  and  C17_22
REMARK    5  A    between atoms: N2_9  and  N3_10
REMARK    6  A    between atoms: C7_11  and  C8_13
REMARK    7  A    between atoms: C9_14  and  C10_15
REMARK                            x       y       z     vdW  Elec       q    Type
REMARK                         _______ _______ _______ _____ _____    ______ ____
ROOT
ATOM      1  C6  UNL     1     156.449 151.290 162.805  0.00  0.00    +0.000 C 
ATOM      2  N2  UNL     1     156.847 151.726 163.953  0.00  0.00    +0.000 NA
ATOM      3  C17 UNL     1     156.199 152.271 161.732  0.00  0.00    +0.000 C 
ENDROOT
BRANCH   1   7
ATOM      4  C2  UNL     1     155.895 147.082 162.211  0.00  0.00    +0.000 A 
ATOM      5  C3  UNL     1     156.648 147.600 163.273  0.00  0.00    +0.000 A 
ATOM      6  C4  UNL     1     156.832 148.949 163.475  0.00  0.00    +0.000 A 
ATOM      7  C5  UNL     1     156.259 149.849 162.603  0.00  0.00    +0.000 A 
ATOM      8  C18 UNL     1     155.513 149.404 161.544  0.00  0.00    +0.000 A 
ATOM      9  C19 UNL     1     155.351 148.022 161.379  0.00  0.00    +0.000 A 
BRANCH   4  12
ATOM     10  O1  UNL     1     157.355 145.288 160.504  0.00  0.00    +0.000 OA
ATOM     11  C1  UNL     1     156.492 144.816 161.266  0.00  0.00    +0.000 C 
ATOM     12  N1  UNL     1     155.774 145.681 162.103  0.00  0.00    +0.000 N 
ATOM     13  H1  UNL     1     155.053 145.185 162.723  0.00  0.00    +0.000 HD
BRANCH  11  14
ATOM     14  C20 UNL     1     156.247 143.354 161.267  0.00  0.00    +0.000 A 
ATOM     15  C21 UNL     1     156.392 142.459 160.254  0.00  0.00    +0.000 A 
ATOM     16  C22 UNL     1     156.039 141.206 160.741  0.00  0.00    +0.000 A 
ATOM     17  C23 UNL     1     155.690 141.430 162.065  0.00  0.00    +0.000 A 
ATOM     18  O3  UNL     1     155.832 142.707 162.317  0.00  0.00    +0.000 OA
ENDBRANCH  11  14
ENDBRANCH   4  12
ENDBRANCH   1   7
BRANCH   2  19
ATOM     19  N3  UNL     1     157.050 153.096 164.213  0.00  0.00    +0.000 N 
ATOM     20  C7  UNL     1     158.380 153.526 164.567  0.00  0.00    +0.000 C 
ATOM     21  O2  UNL     1     159.297 152.672 164.628  0.00  0.00    +0.000 OA
ATOM     22  H4  UNL     1     156.267 153.794 164.156  0.00  0.00    +0.000 HD
BRANCH  20  23
ATOM     23  C8  UNL     1     158.660 154.943 164.851  0.00  0.00    +0.000 C 
ATOM     24  C9  UNL     1     157.496 155.725 165.477  0.00  0.00    +0.000 C 
ATOM     25  C16 UNL     1     157.918 156.012 164.078  0.00  0.00    +0.000 C 
BRANCH  24  26
ATOM     26  C10 UNL     1     157.816 156.642 166.573  0.00  0.00    +0.000 A 
ATOM     27  C11 UNL     1     158.914 157.486 166.522  0.00  0.00    +0.000 A 
ATOM     28  C12 UNL     1     159.223 158.343 167.534  0.00  0.00    +0.000 A 
ATOM     29  C13 UNL     1     158.429 158.394 168.661  0.00  0.00    +0.000 A 
ATOM     30  C14 UNL     1     157.345 157.569 168.724  0.00  0.00    +0.000 A 
ATOM     31  C15 UNL     1     157.025 156.692 167.695  0.00  0.00    +0.000 A 
ENDBRANCH  24  26
ENDBRANCH  20  23
ENDBRANCH   2  19
TORSDOF 6
ENDMDL
