MODEL 1
REMARK VINA RESULT:      -6.4      0.000      0.000
REMARK  Name = ./3D_structures\o19_MMV1580485_3D.pdb
REMARK  8 active torsions:
REMARK  status: ('A' for Active; 'I' for Inactive)
REMARK    1  A    between atoms: C2_3  and  O1_4
REMARK    2  A    between atoms: O1_4  and  C3_5
REMARK    3  A    between atoms: C3_5  and  C4_6
REMARK    4  A    between atoms: C7_9  and  C8_10
REMARK    5  A    between atoms: C8_10  and  O2_11
REMARK    6  A    between atoms: O2_11  and  C9_12
REMARK    7  A    between atoms: C19_24  and  O3_26
REMARK    8  A    between atoms: O3_26  and  C21_27
REMARK                            x       y       z     vdW  Elec       q    Type
REMARK                         _______ _______ _______ _____ _____    ______ ____
ROOT
ATOM      1  C4  UNL     1     155.854 158.108 165.843  0.00  0.00    +0.000 A 
ATOM      2  C5  UNL     1     154.536 158.441 166.167  0.00  0.00    +0.000 A 
ATOM      3  C6  UNL     1     154.124 159.739 166.009  0.00  0.00    +0.000 A 
ATOM      4  C7  UNL     1     154.969 160.731 165.539  0.00  0.00    +0.000 A 
ATOM      5  C15 UNL     1     156.257 160.361 165.232  0.00  0.00    +0.000 A 
ATOM      6  C16 UNL     1     156.707 159.065 165.378  0.00  0.00    +0.000 A 
ENDROOT
BRANCH   1   7
ATOM      7  C3  UNL     1     156.313 156.691 166.013  0.00  0.00    +0.000 C 
BRANCH   7   8
ATOM      8  O1  UNL     1     157.268 156.647 167.021  0.00  0.00    +0.000 OA
BRANCH   8  11
ATOM      9 CL1  UNL     1     159.416 158.550 167.994  0.00  0.00    +0.000 Cl
ATOM     10  C1  UNL     1     158.031 157.979 168.873  0.00  0.00    +0.000 A 
ATOM     11  C2  UNL     1     157.135 157.110 168.295  0.00  0.00    +0.000 A 
ATOM     12  C17 UNL     1     156.063 156.707 169.062  0.00  0.00    +0.000 A 
ATOM     13  C18 UNL     1     155.887 157.151 170.359  0.00  0.00    +0.000 A 
ATOM     14  C19 UNL     1     156.798 158.020 170.916  0.00  0.00    +0.000 A 
ATOM     15  C20 UNL     1     157.862 158.433 170.184  0.00  0.00    +0.000 A 
BRANCH  14  16
ATOM     16  O3  UNL     1     156.633 158.472 172.213  0.00  0.00    +0.000 OA
ATOM     17  C21 UNL     1     156.232 159.797 172.446  0.00  0.00    +0.000 C 
ENDBRANCH  14  16
ENDBRANCH   8  11
ENDBRANCH   7   8
ENDBRANCH   1   7
BRANCH   4  18
ATOM     18  C8  UNL     1     154.470 162.100 165.391  0.00  0.00    +0.000 C 
BRANCH  18  19
ATOM     19  O2  UNL     1     153.217 162.164 164.718  0.00  0.00    +0.000 OA
BRANCH  19  20
ATOM     20  C9  UNL     1     152.465 163.319 164.942  0.00  0.00    +0.000 A 
ATOM     21  C10 UNL     1     151.430 163.342 165.855  0.00  0.00    +0.000 A 
ATOM     22 CL2  UNL     1     151.084 161.849 166.737  0.00  0.00    +0.000 Cl
ATOM     23  C11 UNL     1     150.694 164.490 166.069  0.00  0.00    +0.000 A 
ATOM     24  C12 UNL     1     150.956 165.660 165.386  0.00  0.00    +0.000 A 
ATOM     25  C13 UNL     1     151.990 165.641 164.473  0.00  0.00    +0.000 A 
ATOM     26  C14 UNL     1     152.724 164.492 164.262  0.00  0.00    +0.000 A 
ATOM     27 CL3  UNL     1     154.049 164.445 163.099  0.00  0.00    +0.000 Cl
ENDBRANCH  19  20
ENDBRANCH  18  19
ENDBRANCH   4  18
TORSDOF 7
ENDMDL
MODEL 2
REMARK VINA RESULT:      -6.4      0.295      1.967
REMARK  Name = ./3D_structures\o19_MMV1580485_3D.pdb
REMARK  8 active torsions:
REMARK  status: ('A' for Active; 'I' for Inactive)
REMARK    1  A    between atoms: C2_3  and  O1_4
REMARK    2  A    between atoms: O1_4  and  C3_5
REMARK    3  A    between atoms: C3_5  and  C4_6
REMARK    4  A    between atoms: C7_9  and  C8_10
REMARK    5  A    between atoms: C8_10  and  O2_11
REMARK    6  A    between atoms: O2_11  and  C9_12
REMARK    7  A    between atoms: C19_24  and  O3_26
REMARK    8  A    between atoms: O3_26  and  C21_27
REMARK                            x       y       z     vdW  Elec       q    Type
REMARK                         _______ _______ _______ _____ _____    ______ ____
ROOT
ATOM      1  C4  UNL     1     155.754 157.997 165.798  0.00  0.00    +0.000 A 
ATOM      2  C5  UNL     1     156.600 158.943 165.216  0.00  0.00    +0.000 A 
ATOM      3  C6  UNL     1     156.143 160.225 165.046  0.00  0.00    +0.000 A 
ATOM      4  C7  UNL     1     154.871 160.613 165.432  0.00  0.00    +0.000 A 
ATOM      5  C15 UNL     1     154.069 159.651 166.001  0.00  0.00    +0.000 A 
ATOM      6  C16 UNL     1     154.495 158.352 166.188  0.00  0.00    +0.000 A 
ENDROOT
BRANCH   1   7
ATOM      7  C3  UNL     1     156.245 156.593 165.988  0.00  0.00    +0.000 C 
BRANCH   7   8
ATOM      8  O1  UNL     1     157.300 156.606 166.892  0.00  0.00    +0.000 OA
BRANCH   8  11
ATOM      9 CL1  UNL     1     159.695 158.309 167.628  0.00  0.00    +0.000 Cl
ATOM     10  C1  UNL     1     158.318 157.936 168.618  0.00  0.00    +0.000 A 
ATOM     11  C2  UNL     1     157.299 157.143 168.143  0.00  0.00    +0.000 A 
ATOM     12  C17 UNL     1     156.242 156.896 168.994  0.00  0.00    +0.000 A 
ATOM     13  C18 UNL     1     156.199 157.420 170.272  0.00  0.00    +0.000 A 
ATOM     14  C19 UNL     1     157.230 158.211 170.725  0.00  0.00    +0.000 A 
ATOM     15  C20 UNL     1     158.282 158.470 169.909  0.00  0.00    +0.000 A 
BRANCH  14  16
ATOM     16  O3  UNL     1     157.198 158.741 172.003  0.00  0.00    +0.000 OA
ATOM     17  C21 UNL     1     155.998 159.260 172.513  0.00  0.00    +0.000 C 
ENDBRANCH  14  16
ENDBRANCH   8  11
ENDBRANCH   7   8
ENDBRANCH   1   7
BRANCH   4  18
ATOM     18  C8  UNL     1     154.440 161.998 165.225  0.00  0.00    +0.000 C 
BRANCH  18  19
ATOM     19  O2  UNL     1     153.149 162.093 164.633  0.00  0.00    +0.000 OA
BRANCH  19  20
ATOM     20  C9  UNL     1     152.452 163.277 164.885  0.00  0.00    +0.000 A 
ATOM     21  C10 UNL     1     152.761 164.452 164.230  0.00  0.00    +0.000 A 
ATOM     22 CL2  UNL     1     154.078 164.409 163.052  0.00  0.00    +0.000 Cl
ATOM     23  C11 UNL     1     152.065 165.616 164.487  0.00  0.00    +0.000 A 
ATOM     24  C12 UNL     1     151.034 165.659 165.404  0.00  0.00    +0.000 A 
ATOM     25  C13 UNL     1     150.722 164.487 166.062  0.00  0.00    +0.000 A 
ATOM     26  C14 UNL     1     151.420 163.326 165.802  0.00  0.00    +0.000 A 
ATOM     27 CL3  UNL     1     151.039 161.816 166.630  0.00  0.00    +0.000 Cl
ENDBRANCH  19  20
ENDBRANCH  18  19
ENDBRANCH   4  18
TORSDOF 7
ENDMDL
MODEL 3
REMARK VINA RESULT:      -6.2      2.669      8.424
REMARK  Name = ./3D_structures\o19_MMV1580485_3D.pdb
REMARK  8 active torsions:
REMARK  status: ('A' for Active; 'I' for Inactive)
REMARK    1  A    between atoms: C2_3  and  O1_4
REMARK    2  A    between atoms: O1_4  and  C3_5
REMARK    3  A    between atoms: C3_5  and  C4_6
REMARK    4  A    between atoms: C7_9  and  C8_10
REMARK    5  A    between atoms: C8_10  and  O2_11
REMARK    6  A    between atoms: O2_11  and  C9_12
REMARK    7  A    between atoms: C19_24  and  O3_26
REMARK    8  A    between atoms: O3_26  and  C21_27
REMARK                            x       y       z     vdW  Elec       q    Type
REMARK                         _______ _______ _______ _____ _____    ______ ____
ROOT
ATOM      1  C4  UNL     1     152.681 162.823 164.698  0.00  0.00    +0.000 A 
ATOM      2  C5  UNL     1     154.072 162.911 164.781  0.00  0.00    +0.000 A 
ATOM      3  C6  UNL     1     154.790 161.785 165.093  0.00  0.00    +0.000 A 
ATOM      4  C7  UNL     1     154.181 160.563 165.328  0.00  0.00    +0.000 A 
ATOM      5  C15 UNL     1     152.809 160.519 165.236  0.00  0.00    +0.000 A 
ATOM      6  C16 UNL     1     152.055 161.632 164.924  0.00  0.00    +0.000 A 
ENDROOT
BRANCH   1   7
ATOM      7  C3  UNL     1     151.889 164.050 164.357  0.00  0.00    +0.000 C 
BRANCH   7   8
ATOM      8  O1  UNL     1     151.742 164.821 165.503  0.00  0.00    +0.000 OA
BRANCH   8  11
ATOM      9 CL1  UNL     1     152.091 163.359 168.134  0.00  0.00    +0.000 Cl
ATOM     10  C1  UNL     1     150.686 164.215 167.577  0.00  0.00    +0.000 A 
ATOM     11  C2  UNL     1     150.676 164.835 166.349  0.00  0.00    +0.000 A 
ATOM     12  C17 UNL     1     149.520 165.492 165.984  0.00  0.00    +0.000 A 
ATOM     13  C18 UNL     1     148.412 165.532 166.810  0.00  0.00    +0.000 A 
ATOM     14  C19 UNL     1     148.447 164.904 168.034  0.00  0.00    +0.000 A 
ATOM     15  C20 UNL     1     149.571 164.250 168.419  0.00  0.00    +0.000 A 
BRANCH  14  16
ATOM     16  O3  UNL     1     147.345 164.937 168.870  0.00  0.00    +0.000 OA
ATOM     17  C21 UNL     1     146.071 165.190 168.337  0.00  0.00    +0.000 C 
ENDBRANCH  14  16
ENDBRANCH   8  11
ENDBRANCH   7   8
ENDBRANCH   1   7
BRANCH   4  18
ATOM     18  C8  UNL     1     155.001 159.395 165.657  0.00  0.00    +0.000 C 
BRANCH  18  19
ATOM     19  O2  UNL     1     154.274 158.383 166.347  0.00  0.00    +0.000 OA
BRANCH  19  20
ATOM     20  C9  UNL     1     154.763 158.037 167.608  0.00  0.00    +0.000 A 
ATOM     21  C10 UNL     1     154.186 158.520 168.765  0.00  0.00    +0.000 A 
ATOM     22 CL2  UNL     1     152.795 159.600 168.596  0.00  0.00    +0.000 Cl
ATOM     23  C11 UNL     1     154.677 158.172 170.007  0.00  0.00    +0.000 A 
ATOM     24  C12 UNL     1     155.762 157.330 170.149  0.00  0.00    +0.000 A 
ATOM     25  C13 UNL     1     156.342 156.845 168.995  0.00  0.00    +0.000 A 
ATOM     26  C14 UNL     1     155.847 157.195 167.756  0.00  0.00    +0.000 A 
ATOM     27 CL3  UNL     1     156.573 156.588 166.267  0.00  0.00    +0.000 Cl
ENDBRANCH  19  20
ENDBRANCH  18  19
ENDBRANCH   4  18
TORSDOF 7
ENDMDL
MODEL 4
REMARK VINA RESULT:      -6.1      2.800      8.736
REMARK  Name = ./3D_structures\o19_MMV1580485_3D.pdb
REMARK  8 active torsions:
REMARK  status: ('A' for Active; 'I' for Inactive)
REMARK    1  A    between atoms: C2_3  and  O1_4
REMARK    2  A    between atoms: O1_4  and  C3_5
REMARK    3  A    between atoms: C3_5  and  C4_6
REMARK    4  A    between atoms: C7_9  and  C8_10
REMARK    5  A    between atoms: C8_10  and  O2_11
REMARK    6  A    between atoms: O2_11  and  C9_12
REMARK    7  A    between atoms: C19_24  and  O3_26
REMARK    8  A    between atoms: O3_26  and  C21_27
REMARK                            x       y       z     vdW  Elec       q    Type
REMARK                         _______ _______ _______ _____ _____    ______ ____
ROOT
ATOM      1  C4  UNL     1     152.629 162.981 164.913  0.00  0.00    +0.000 A 
ATOM      2  C5  UNL     1     152.031 161.719 164.881  0.00  0.00    +0.000 A 
ATOM      3  C6  UNL     1     152.808 160.612 165.112  0.00  0.00    +0.000 A 
ATOM      4  C7  UNL     1     154.164 160.704 165.375  0.00  0.00    +0.000 A 
ATOM      5  C15 UNL     1     154.714 161.965 165.398  0.00  0.00    +0.000 A 
ATOM      6  C16 UNL     1     153.963 163.100 165.170  0.00  0.00    +0.000 A 
ENDROOT
BRANCH   1   7
ATOM      7  C3  UNL     1     151.787 164.196 164.661  0.00  0.00    +0.000 C 
BRANCH   7   8
ATOM      8  O1  UNL     1     151.445 164.765 165.881  0.00  0.00    +0.000 OA
BRANCH   8  11
ATOM      9 CL1  UNL     1     150.898 162.791 168.114  0.00  0.00    +0.000 Cl
ATOM     10  C1  UNL     1     149.813 163.980 167.464  0.00  0.00    +0.000 A 
ATOM     11  C2  UNL     1     150.206 164.813 166.442  0.00  0.00    +0.000 A 
ATOM     12  C17 UNL     1     149.282 165.730 165.985  0.00  0.00    +0.000 A 
ATOM     13  C18 UNL     1     148.012 165.815 166.524  0.00  0.00    +0.000 A 
ATOM     14  C19 UNL     1     147.642 164.970 167.546  0.00  0.00    +0.000 A 
ATOM     15  C20 UNL     1     148.530 164.059 168.015  0.00  0.00    +0.000 A 
BRANCH  14  16
ATOM     16  O3  UNL     1     146.374 165.046 168.093  0.00  0.00    +0.000 OA
ATOM     17  C21 UNL     1     145.247 164.990 167.258  0.00  0.00    +0.000 C 
ENDBRANCH  14  16
ENDBRANCH   8  11
ENDBRANCH   7   8
ENDBRANCH   1   7
BRANCH   4  18
ATOM     18  C8  UNL     1     154.941 159.486 165.615  0.00  0.00    +0.000 C 
BRANCH  18  19
ATOM     19  O2  UNL     1     154.195 158.475 166.285  0.00  0.00    +0.000 OA
BRANCH  19  20
ATOM     20  C9  UNL     1     154.676 158.098 167.540  0.00  0.00    +0.000 A 
ATOM     21  C10 UNL     1     155.762 157.257 167.676  0.00  0.00    +0.000 A 
ATOM     22 CL2  UNL     1     156.531 156.669 166.196  0.00  0.00    +0.000 Cl
ATOM     23  C11 UNL     1     156.230 156.891 168.922  0.00  0.00    +0.000 A 
ATOM     24  C12 UNL     1     155.637 157.345 170.083  0.00  0.00    +0.000 A 
ATOM     25  C13 UNL     1     154.551 158.186 169.952  0.00  0.00    +0.000 A 
ATOM     26  C14 UNL     1     154.087 158.550 168.705  0.00  0.00    +0.000 A 
ATOM     27 CL3  UNL     1     152.701 159.623 168.513  0.00  0.00    +0.000 Cl
ENDBRANCH  19  20
ENDBRANCH  18  19
ENDBRANCH   4  18
TORSDOF 7
ENDMDL
MODEL 5
REMARK VINA RESULT:      -6.0      3.953      7.134
REMARK  Name = ./3D_structures\o19_MMV1580485_3D.pdb
REMARK  8 active torsions:
REMARK  status: ('A' for Active; 'I' for Inactive)
REMARK    1  A    between atoms: C2_3  and  O1_4
REMARK    2  A    between atoms: O1_4  and  C3_5
REMARK    3  A    between atoms: C3_5  and  C4_6
REMARK    4  A    between atoms: C7_9  and  C8_10
REMARK    5  A    between atoms: C8_10  and  O2_11
REMARK    6  A    between atoms: O2_11  and  C9_12
REMARK    7  A    between atoms: C19_24  and  O3_26
REMARK    8  A    between atoms: O3_26  and  C21_27
REMARK                            x       y       z     vdW  Elec       q    Type
REMARK                         _______ _______ _______ _____ _____    ______ ____
ROOT
ATOM      1  C4  UNL     1     156.155 160.467 172.416  0.00  0.00    +0.000 A 
ATOM      2  C5  UNL     1     156.070 159.077 172.522  0.00  0.00    +0.000 A 
ATOM      3  C6  UNL     1     156.691 158.301 171.577  0.00  0.00    +0.000 A 
ATOM      4  C7  UNL     1     157.399 158.849 170.520  0.00  0.00    +0.000 A 
ATOM      5  C15 UNL     1     157.458 160.221 170.452  0.00  0.00    +0.000 A 
ATOM      6  C16 UNL     1     156.846 161.033 171.385  0.00  0.00    +0.000 A 
ENDROOT
BRANCH   1   7
ATOM      7  C3  UNL     1     155.479 161.323 173.445  0.00  0.00    +0.000 C 
BRANCH   7   8
ATOM      8  O1  UNL     1     154.281 161.791 172.921  0.00  0.00    +0.000 OA
BRANCH   8  11
ATOM      9 CL1  UNL     1     153.854 161.985 169.928  0.00  0.00    +0.000 Cl
ATOM     10  C1  UNL     1     152.954 161.031 171.065  0.00  0.00    +0.000 A 
ATOM     11  C2  UNL     1     153.266 161.045 172.405  0.00  0.00    +0.000 A 
ATOM     12  C17 UNL     1     152.501 160.258 173.239  0.00  0.00    +0.000 A 
ATOM     13  C18 UNL     1     151.461 159.484 172.760  0.00  0.00    +0.000 A 
ATOM     14  C19 UNL     1     151.167 159.487 171.415  0.00  0.00    +0.000 A 
ATOM     15  C20 UNL     1     151.903 160.252 170.572  0.00  0.00    +0.000 A 
BRANCH  14  16
ATOM     16  O3  UNL     1     150.128 158.717 170.923  0.00  0.00    +0.000 OA
ATOM     17  C21 UNL     1     150.347 157.365 170.615  0.00  0.00    +0.000 C 
ENDBRANCH  14  16
ENDBRANCH   8  11
ENDBRANCH   7   8
ENDBRANCH   1   7
BRANCH   4  18
ATOM     18  C8  UNL     1     158.041 157.968 169.542  0.00  0.00    +0.000 C 
BRANCH  18  19
ATOM     19  O2  UNL     1     157.109 157.166 168.823  0.00  0.00    +0.000 OA
BRANCH  19  20
ATOM     20  C9  UNL     1     156.438 157.805 167.778  0.00  0.00    +0.000 A 
ATOM     21  C10 UNL     1     157.093 158.185 166.624  0.00  0.00    +0.000 A 
ATOM     22 CL2  UNL     1     158.823 157.833 166.511  0.00  0.00    +0.000 Cl
ATOM     23  C11 UNL     1     156.420 158.815 165.597  0.00  0.00    +0.000 A 
ATOM     24  C12 UNL     1     155.071 159.094 165.675  0.00  0.00    +0.000 A 
ATOM     25  C13 UNL     1     154.412 158.715 166.827  0.00  0.00    +0.000 A 
ATOM     26  C14 UNL     1     155.088 158.085 167.851  0.00  0.00    +0.000 A 
ATOM     27 CL3  UNL     1     154.268 157.593 169.333  0.00  0.00    +0.000 Cl
ENDBRANCH  19  20
ENDBRANCH  18  19
ENDBRANCH   4  18
TORSDOF 7
ENDMDL
MODEL 6
REMARK VINA RESULT:      -6.0      3.450      6.277
REMARK  Name = ./3D_structures\o19_MMV1580485_3D.pdb
REMARK  8 active torsions:
REMARK  status: ('A' for Active; 'I' for Inactive)
REMARK    1  A    between atoms: C2_3  and  O1_4
REMARK    2  A    between atoms: O1_4  and  C3_5
REMARK    3  A    between atoms: C3_5  and  C4_6
REMARK    4  A    between atoms: C7_9  and  C8_10
REMARK    5  A    between atoms: C8_10  and  O2_11
REMARK    6  A    between atoms: O2_11  and  C9_12
REMARK    7  A    between atoms: C19_24  and  O3_26
REMARK    8  A    between atoms: O3_26  and  C21_27
REMARK                            x       y       z     vdW  Elec       q    Type
REMARK                         _______ _______ _______ _____ _____    ______ ____
ROOT
ATOM      1  C4  UNL     1     156.531 158.529 170.973  0.00  0.00    +0.000 A 
ATOM      2  C5  UNL     1     157.619 158.896 170.178  0.00  0.00    +0.000 A 
ATOM      3  C6  UNL     1     157.838 158.224 169.003  0.00  0.00    +0.000 A 
ATOM      4  C7  UNL     1     157.016 157.193 168.578  0.00  0.00    +0.000 A 
ATOM      5  C15 UNL     1     155.956 156.863 169.389  0.00  0.00    +0.000 A 
ATOM      6  C16 UNL     1     155.705 157.517 170.578  0.00  0.00    +0.000 A 
ENDROOT
BRANCH   1   7
ATOM      7  C3  UNL     1     156.285 159.258 172.260  0.00  0.00    +0.000 C 
BRANCH   7   8
ATOM      8  O1  UNL     1     155.603 160.436 171.984  0.00  0.00    +0.000 OA
BRANCH   8  11
ATOM      9 CL1  UNL     1     155.295 161.393 169.126  0.00  0.00    +0.000 Cl
ATOM     10  C1  UNL     1     154.033 160.977 170.244  0.00  0.00    +0.000 A 
ATOM     11  C2  UNL     1     154.329 160.554 171.519  0.00  0.00    +0.000 A 
ATOM     12  C17 UNL     1     153.267 160.243 172.343  0.00  0.00    +0.000 A 
ATOM     13  C18 UNL     1     151.957 160.349 171.915  0.00  0.00    +0.000 A 
ATOM     14  C19 UNL     1     151.687 160.774 170.634  0.00  0.00    +0.000 A 
ATOM     15  C20 UNL     1     152.711 161.086 169.802  0.00  0.00    +0.000 A 
BRANCH  14  16
ATOM     16  O3  UNL     1     150.380 160.883 170.193  0.00  0.00    +0.000 OA
ATOM     17  C21 UNL     1     150.034 160.427 168.912  0.00  0.00    +0.000 C 
ENDBRANCH  14  16
ENDBRANCH   8  11
ENDBRANCH   7   8
ENDBRANCH   1   7
BRANCH   4  18
ATOM     18  C8  UNL     1     157.300 156.513 167.312  0.00  0.00    +0.000 C 
BRANCH  18  19
ATOM     19  O2  UNL     1     156.282 156.709 166.336  0.00  0.00    +0.000 OA
BRANCH  19  20
ATOM     20  C9  UNL     1     156.357 157.901 165.612  0.00  0.00    +0.000 A 
ATOM     21  C10 UNL     1     155.435 158.913 165.789  0.00  0.00    +0.000 A 
ATOM     22 CL2  UNL     1     154.147 158.649 166.971  0.00  0.00    +0.000 Cl
ATOM     23  C11 UNL     1     155.518 160.088 165.068  0.00  0.00    +0.000 A 
ATOM     24  C12 UNL     1     156.520 160.304 164.144  0.00  0.00    +0.000 A 
ATOM     25  C13 UNL     1     157.444 159.294 163.964  0.00  0.00    +0.000 A 
ATOM     26  C14 UNL     1     157.357 158.122 164.687  0.00  0.00    +0.000 A 
ATOM     27 CL3  UNL     1     158.526 156.819 164.474  0.00  0.00    +0.000 Cl
ENDBRANCH  19  20
ENDBRANCH  18  19
ENDBRANCH   4  18
TORSDOF 7
ENDMDL
MODEL 7
REMARK VINA RESULT:      -5.9      4.229      9.953
REMARK  Name = ./3D_structures\o19_MMV1580485_3D.pdb
REMARK  8 active torsions:
REMARK  status: ('A' for Active; 'I' for Inactive)
REMARK    1  A    between atoms: C2_3  and  O1_4
REMARK    2  A    between atoms: O1_4  and  C3_5
REMARK    3  A    between atoms: C3_5  and  C4_6
REMARK    4  A    between atoms: C7_9  and  C8_10
REMARK    5  A    between atoms: C8_10  and  O2_11
REMARK    6  A    between atoms: O2_11  and  C9_12
REMARK    7  A    between atoms: C19_24  and  O3_26
REMARK    8  A    between atoms: O3_26  and  C21_27
REMARK                            x       y       z     vdW  Elec       q    Type
REMARK                         _______ _______ _______ _____ _____    ______ ____
ROOT
ATOM      1  C4  UNL     1     149.925 160.205 168.668  0.00  0.00    +0.000 A 
ATOM      2  C5  UNL     1     150.952 161.046 168.235  0.00  0.00    +0.000 A 
ATOM      3  C6  UNL     1     152.201 160.902 168.783  0.00  0.00    +0.000 A 
ATOM      4  C7  UNL     1     152.478 159.952 169.751  0.00  0.00    +0.000 A 
ATOM      5  C15 UNL     1     151.439 159.144 170.150  0.00  0.00    +0.000 A 
ATOM      6  C16 UNL     1     150.170 159.259 169.621  0.00  0.00    +0.000 A 
ENDROOT
BRANCH   1   7
ATOM      7  C3  UNL     1     148.556 160.355 168.075  0.00  0.00    +0.000 C 
BRANCH   7   8
ATOM      8  O1  UNL     1     148.010 161.557 168.506  0.00  0.00    +0.000 OA
BRANCH   8  11
ATOM      9 CL1  UNL     1     145.166 161.256 167.506  0.00  0.00    +0.000 Cl
ATOM     10  C1  UNL     1     146.261 162.568 167.199  0.00  0.00    +0.000 A 
ATOM     11  C2  UNL     1     147.532 162.565 167.726  0.00  0.00    +0.000 A 
ATOM     12  C17 UNL     1     148.338 163.646 167.434  0.00  0.00    +0.000 A 
ATOM     13  C18 UNL     1     147.897 164.692 166.646  0.00  0.00    +0.000 A 
ATOM     14  C19 UNL     1     146.620 164.672 166.130  0.00  0.00    +0.000 A 
ATOM     15  C20 UNL     1     145.807 163.621 166.402  0.00  0.00    +0.000 A 
BRANCH  14  16
ATOM     16  O3  UNL     1     146.167 165.713 165.341  0.00  0.00    +0.000 OA
ATOM     17  C21 UNL     1     145.588 166.843 165.939  0.00  0.00    +0.000 C 
ENDBRANCH  14  16
ENDBRANCH   8  11
ENDBRANCH   7   8
ENDBRANCH   1   7
BRANCH   4  18
ATOM     18  C8  UNL     1     153.833 159.846 170.298  0.00  0.00    +0.000 C 
BRANCH  18  19
ATOM     19  O2  UNL     1     154.338 158.515 170.275  0.00  0.00    +0.000 OA
BRANCH  19  20
ATOM     20  C9  UNL     1     155.685 158.383 169.932  0.00  0.00    +0.000 A 
ATOM     21  C10 UNL     1     156.690 158.592 170.855  0.00  0.00    +0.000 A 
ATOM     22 CL2  UNL     1     156.211 159.035 172.499  0.00  0.00    +0.000 Cl
ATOM     23  C11 UNL     1     158.018 158.458 170.506  0.00  0.00    +0.000 A 
ATOM     24  C12 UNL     1     158.402 158.112 169.226  0.00  0.00    +0.000 A 
ATOM     25  C13 UNL     1     157.401 157.903 168.300  0.00  0.00    +0.000 A 
ATOM     26  C14 UNL     1     156.074 158.037 168.654  0.00  0.00    +0.000 A 
ATOM     27 CL3  UNL     1     154.777 157.774 167.487  0.00  0.00    +0.000 Cl
ENDBRANCH  19  20
ENDBRANCH  18  19
ENDBRANCH   4  18
TORSDOF 7
ENDMDL
MODEL 8
REMARK VINA RESULT:      -5.9      2.287      8.557
REMARK  Name = ./3D_structures\o19_MMV1580485_3D.pdb
REMARK  8 active torsions:
REMARK  status: ('A' for Active; 'I' for Inactive)
REMARK    1  A    between atoms: C2_3  and  O1_4
REMARK    2  A    between atoms: O1_4  and  C3_5
REMARK    3  A    between atoms: C3_5  and  C4_6
REMARK    4  A    between atoms: C7_9  and  C8_10
REMARK    5  A    between atoms: C8_10  and  O2_11
REMARK    6  A    between atoms: O2_11  and  C9_12
REMARK    7  A    between atoms: C19_24  and  O3_26
REMARK    8  A    between atoms: O3_26  and  C21_27
REMARK                            x       y       z     vdW  Elec       q    Type
REMARK                         _______ _______ _______ _____ _____    ______ ____
ROOT
ATOM      1  C4  UNL     1     153.673 161.379 165.156  0.00  0.00    +0.000 A 
ATOM      2  C5  UNL     1     152.997 160.295 165.721  0.00  0.00    +0.000 A 
ATOM      3  C6  UNL     1     153.705 159.163 166.033  0.00  0.00    +0.000 A 
ATOM      4  C7  UNL     1     155.067 159.057 165.806  0.00  0.00    +0.000 A 
ATOM      5  C15 UNL     1     155.694 160.146 165.247  0.00  0.00    +0.000 A 
ATOM      6  C16 UNL     1     155.015 161.302 164.921  0.00  0.00    +0.000 A 
ENDROOT
BRANCH   1   7
ATOM      7  C3  UNL     1     152.907 162.621 164.812  0.00  0.00    +0.000 C 
BRANCH   7   8
ATOM      8  O1  UNL     1     152.514 163.245 165.988  0.00  0.00    +0.000 OA
BRANCH   8  11
ATOM      9 CL1  UNL     1     151.921 165.907 164.668  0.00  0.00    +0.000 Cl
ATOM     10  C1  UNL     1     150.889 164.999 165.729  0.00  0.00    +0.000 A 
ATOM     11  C2  UNL     1     151.298 163.796 166.256  0.00  0.00    +0.000 A 
ATOM     12  C17 UNL     1     150.417 163.140 167.089  0.00  0.00    +0.000 A 
ATOM     13  C18 UNL     1     149.172 163.662 167.389  0.00  0.00    +0.000 A 
ATOM     14  C19 UNL     1     148.785 164.868 166.850  0.00  0.00    +0.000 A 
ATOM     15  C20 UNL     1     149.632 165.534 166.027  0.00  0.00    +0.000 A 
BRANCH  14  16
ATOM     16  O3  UNL     1     147.542 165.399 167.143  0.00  0.00    +0.000 OA
ATOM     17  C21 UNL     1     146.792 166.019 166.131  0.00  0.00    +0.000 C 
ENDBRANCH  14  16
ENDBRANCH   8  11
ENDBRANCH   7   8
ENDBRANCH   1   7
BRANCH   4  18
ATOM     18  C8  UNL     1     155.768 157.821 166.160  0.00  0.00    +0.000 C 
BRANCH  18  19
ATOM     19  O2  UNL     1     155.296 157.244 167.373  0.00  0.00    +0.000 OA
BRANCH  19  20
ATOM     20  C9  UNL     1     155.937 157.671 168.538  0.00  0.00    +0.000 A 
ATOM     21  C10 UNL     1     157.314 157.726 168.627  0.00  0.00    +0.000 A 
ATOM     22 CL2  UNL     1     158.245 157.233 167.206  0.00  0.00    +0.000 Cl
ATOM     23  C11 UNL     1     157.938 158.150 169.783  0.00  0.00    +0.000 A 
ATOM     24  C12 UNL     1     157.220 158.536 170.896  0.00  0.00    +0.000 A 
ATOM     25  C13 UNL     1     155.844 158.483 170.812  0.00  0.00    +0.000 A 
ATOM     26  C14 UNL     1     155.224 158.059 169.655  0.00  0.00    +0.000 A 
ATOM     27 CL3  UNL     1     153.467 157.983 169.524  0.00  0.00    +0.000 Cl
ENDBRANCH  19  20
ENDBRANCH  18  19
ENDBRANCH   4  18
TORSDOF 7
ENDMDL
MODEL 9
REMARK VINA RESULT:      -5.9      3.206      9.119
REMARK  Name = ./3D_structures\o19_MMV1580485_3D.pdb
REMARK  8 active torsions:
REMARK  status: ('A' for Active; 'I' for Inactive)
REMARK    1  A    between atoms: C2_3  and  O1_4
REMARK    2  A    between atoms: O1_4  and  C3_5
REMARK    3  A    between atoms: C3_5  and  C4_6
REMARK    4  A    between atoms: C7_9  and  C8_10
REMARK    5  A    between atoms: C8_10  and  O2_11
REMARK    6  A    between atoms: O2_11  and  C9_12
REMARK    7  A    between atoms: C19_24  and  O3_26
REMARK    8  A    between atoms: O3_26  and  C21_27
REMARK                            x       y       z     vdW  Elec       q    Type
REMARK                         _______ _______ _______ _____ _____    ______ ____
ROOT
ATOM      1  C4  UNL     1     151.488 160.599 168.634  0.00  0.00    +0.000 A 
ATOM      2  C5  UNL     1     151.365 159.553 169.552  0.00  0.00    +0.000 A 
ATOM      3  C6  UNL     1     152.288 158.540 169.529  0.00  0.00    +0.000 A 
ATOM      4  C7  UNL     1     153.340 158.519 168.628  0.00  0.00    +0.000 A 
ATOM      5  C15 UNL     1     153.425 159.567 167.741  0.00  0.00    +0.000 A 
ATOM      6  C16 UNL     1     152.514 160.603 167.735  0.00  0.00    +0.000 A 
ENDROOT
BRANCH   1   7
ATOM      7  C3  UNL     1     150.482 161.711 168.652  0.00  0.00    +0.000 C 
BRANCH   7   8
ATOM      8  O1  UNL     1     150.687 162.518 167.541  0.00  0.00    +0.000 OA
BRANCH   8  11
ATOM      9 CL1  UNL     1     151.970 164.396 165.539  0.00  0.00    +0.000 Cl
ATOM     10  C1  UNL     1     150.402 164.541 166.271  0.00  0.00    +0.000 A 
ATOM     11  C2  UNL     1     149.952 163.602 167.170  0.00  0.00    +0.000 A 
ATOM     12  C17 UNL     1     148.695 163.793 167.704  0.00  0.00    +0.000 A 
ATOM     13  C18 UNL     1     147.913 164.879 167.358  0.00  0.00    +0.000 A 
ATOM     14  C19 UNL     1     148.386 165.805 166.456  0.00  0.00    +0.000 A 
ATOM     15  C20 UNL     1     149.618 165.642 165.915  0.00  0.00    +0.000 A 
BRANCH  14  16
ATOM     16  O3  UNL     1     147.612 166.896 166.101  0.00  0.00    +0.000 OA
ATOM     17  C21 UNL     1     146.301 166.702 165.640  0.00  0.00    +0.000 C 
ENDBRANCH  14  16
ENDBRANCH   8  11
ENDBRANCH   7   8
ENDBRANCH   1   7
BRANCH   4  18
ATOM     18  C8  UNL     1     154.296 157.409 168.653  0.00  0.00    +0.000 C 
BRANCH  18  19
ATOM     19  O2  UNL     1     155.125 157.418 169.810  0.00  0.00    +0.000 OA
BRANCH  19  20
ATOM     20  C9  UNL     1     156.234 158.266 169.755  0.00  0.00    +0.000 A 
ATOM     21  C10 UNL     1     157.285 158.026 168.892  0.00  0.00    +0.000 A 
ATOM     22 CL2  UNL     1     157.179 156.601 167.851  0.00  0.00    +0.000 Cl
ATOM     23  C11 UNL     1     158.376 158.871 168.846  0.00  0.00    +0.000 A 
ATOM     24  C12 UNL     1     158.467 159.986 169.654  0.00  0.00    +0.000 A 
ATOM     25  C13 UNL     1     157.419 160.228 170.518  0.00  0.00    +0.000 A 
ATOM     26  C14 UNL     1     156.330 159.382 170.561  0.00  0.00    +0.000 A 
ATOM     27 CL3  UNL     1     154.979 159.672 171.657  0.00  0.00    +0.000 Cl
ENDBRANCH  19  20
ENDBRANCH  18  19
ENDBRANCH   4  18
TORSDOF 7
ENDMDL
