MODEL 1
REMARK VINA RESULT:      -5.8      0.000      0.000
REMARK  Name = ./3D_structures\o1_MMV617332_3D.pdb
REMARK  6 active torsions:
REMARK  status: ('A' for Active; 'I' for Inactive)
REMARK    1  A    between atoms: C1_2  and  C5_6
REMARK    2  A    between atoms: C5_6  and  N1_7
REMARK    3  A    between atoms: N1_7  and  C6_8
REMARK    4  A    between atoms: N2_12  and  C10_13
REMARK    5  A    between atoms: C13_16  and  O2_17
REMARK    6  A    between atoms: O2_17  and  C14_18
REMARK                            x       y       z     vdW  Elec       q    Type
REMARK                         _______ _______ _______ _____ _____    ______ ____
ROOT
ATOM      1  C6  UNL     1     157.485 155.975 164.851  0.00  0.00    +0.000 A 
ATOM      2  C7  UNL     1     158.806 156.381 165.019  0.00  0.00    +0.000 A 
ATOM      3  C8  UNL     1     159.219 157.167 166.074  0.00  0.00    +0.000 A 
ATOM      4  C9  UNL     1     158.312 157.587 167.021  0.00  0.00    +0.000 A 
ATOM      5  N2  UNL     1     158.988 158.333 167.928  0.00  0.00    +0.000 N 
ATOM      6  C17 UNL     1     160.287 158.388 167.569  0.00  0.00    +0.000 A 
ATOM      7  N3  UNL     1     160.407 157.678 166.447  0.00  0.00    +0.000 NA
ATOM      8  C18 UNL     1     157.004 157.200 166.877  0.00  0.00    +0.000 A 
ATOM      9  C19 UNL     1     156.599 156.410 165.813  0.00  0.00    +0.000 A 
ENDROOT
BRANCH   5  10
ATOM     10  C10 UNL     1     158.389 158.942 169.058  0.00  0.00    +0.000 A 
ATOM     11  C11 UNL     1     158.049 160.273 169.070  0.00  0.00    +0.000 A 
ATOM     12  C12 UNL     1     157.468 160.796 170.205  0.00  0.00    +0.000 A 
ATOM     13  C13 UNL     1     157.220 160.036 171.322  0.00  0.00    +0.000 A 
ATOM     14  C15 UNL     1     157.558 158.708 171.315  0.00  0.00    +0.000 A 
ATOM     15  C16 UNL     1     158.135 158.191 170.183  0.00  0.00    +0.000 A 
BRANCH  13  16
ATOM     16  O2  UNL     1     156.631 160.649 172.421  0.00  0.00    +0.000 OA
ATOM     17  C14 UNL     1     155.655 159.998 173.169  0.00  0.00    +0.000 C 
ENDBRANCH  13  16
ENDBRANCH   5  10
BRANCH   1  18
ATOM     18  N1  UNL     1     157.096 155.166 163.741  0.00  0.00    +0.000 N 
ATOM     19  H6  UNL     1     156.131 155.295 163.368  0.00  0.00    +0.000 HD
BRANCH  18  20
ATOM     20  C5  UNL     1     157.986 154.211 163.149  0.00  0.00    +0.000 C 
BRANCH  20  22
ATOM     21  O1  UNL     1     156.886 152.059 163.632  0.00  0.00    +0.000 OA
ATOM     22  C1  UNL     1     157.905 152.875 163.739  0.00  0.00    +0.000 A 
ATOM     23  C2  UNL     1     158.875 152.255 164.496  0.00  0.00    +0.000 A 
ATOM     24  C3  UNL     1     158.351 151.024 164.823  0.00  0.00    +0.000 A 
ATOM     25  C4  UNL     1     157.101 150.940 164.261  0.00  0.00    +0.000 A 
ENDBRANCH  20  22
ENDBRANCH  18  20
ENDBRANCH   1  18
TORSDOF 5
ENDMDL
MODEL 2
REMARK VINA RESULT:      -5.8      8.837     11.583
REMARK  Name = ./3D_structures\o1_MMV617332_3D.pdb
REMARK  6 active torsions:
REMARK  status: ('A' for Active; 'I' for Inactive)
REMARK    1  A    between atoms: C1_2  and  C5_6
REMARK    2  A    between atoms: C5_6  and  N1_7
REMARK    3  A    between atoms: N1_7  and  C6_8
REMARK    4  A    between atoms: N2_12  and  C10_13
REMARK    5  A    between atoms: C13_16  and  O2_17
REMARK    6  A    between atoms: O2_17  and  C14_18
REMARK                            x       y       z     vdW  Elec       q    Type
REMARK                         _______ _______ _______ _____ _____    ______ ____
ROOT
ATOM      1  C6  UNL     1     150.801 165.113 165.437  0.00  0.00    +0.000 A 
ATOM      2  C7  UNL     1     151.880 165.347 164.589  0.00  0.00    +0.000 A 
ATOM      3  C8  UNL     1     152.888 164.427 164.389  0.00  0.00    +0.000 A 
ATOM      4  C9  UNL     1     152.858 163.215 165.042  0.00  0.00    +0.000 A 
ATOM      5  N2  UNL     1     153.959 162.522 164.661  0.00  0.00    +0.000 N 
ATOM      6  C17 UNL     1     154.669 163.271 163.793  0.00  0.00    +0.000 A 
ATOM      7  N3  UNL     1     154.007 164.418 163.641  0.00  0.00    +0.000 NA
ATOM      8  C18 UNL     1     151.805 162.961 165.883  0.00  0.00    +0.000 A 
ATOM      9  C19 UNL     1     150.797 163.892 166.077  0.00  0.00    +0.000 A 
ENDROOT
BRANCH   5  10
ATOM     10  C10 UNL     1     154.277 161.222 165.125  0.00  0.00    +0.000 A 
ATOM     11  C11 UNL     1     153.359 160.444 165.787  0.00  0.00    +0.000 A 
ATOM     12  C12 UNL     1     153.739 159.188 166.210  0.00  0.00    +0.000 A 
ATOM     13  C13 UNL     1     155.001 158.690 165.993  0.00  0.00    +0.000 A 
ATOM     14  C15 UNL     1     155.920 159.462 165.333  0.00  0.00    +0.000 A 
ATOM     15  C16 UNL     1     155.538 160.712 164.914  0.00  0.00    +0.000 A 
BRANCH  13  16
ATOM     16  O2  UNL     1     155.295 157.413 166.454  0.00  0.00    +0.000 OA
ATOM     17  C14 UNL     1     155.753 157.205 167.752  0.00  0.00    +0.000 C 
ENDBRANCH  13  16
ENDBRANCH   5  10
BRANCH   1  18
ATOM     18  N1  UNL     1     149.780 166.093 165.621  0.00  0.00    +0.000 N 
ATOM     19  H6  UNL     1     149.751 166.889 164.948  0.00  0.00    +0.000 HD
BRANCH  18  20
ATOM     20  C5  UNL     1     148.822 166.001 166.683  0.00  0.00    +0.000 C 
BRANCH  20  22
ATOM     21  O1  UNL     1     146.818 167.198 165.891  0.00  0.00    +0.000 OA
ATOM     22  C1  UNL     1     147.430 166.094 166.241  0.00  0.00    +0.000 A 
ATOM     23  C2  UNL     1     146.539 165.051 166.119  0.00  0.00    +0.000 A 
ATOM     24  C3  UNL     1     145.368 165.621 165.674  0.00  0.00    +0.000 A 
ATOM     25  C4  UNL     1     145.585 166.971 165.543  0.00  0.00    +0.000 A 
ENDBRANCH  20  22
ENDBRANCH  18  20
ENDBRANCH   1  18
TORSDOF 5
ENDMDL
MODEL 3
REMARK VINA RESULT:      -5.7      4.058      7.781
REMARK  Name = ./3D_structures\o1_MMV617332_3D.pdb
REMARK  6 active torsions:
REMARK  status: ('A' for Active; 'I' for Inactive)
REMARK    1  A    between atoms: C1_2  and  C5_6
REMARK    2  A    between atoms: C5_6  and  N1_7
REMARK    3  A    between atoms: N1_7  and  C6_8
REMARK    4  A    between atoms: N2_12  and  C10_13
REMARK    5  A    between atoms: C13_16  and  O2_17
REMARK    6  A    between atoms: O2_17  and  C14_18
REMARK                            x       y       z     vdW  Elec       q    Type
REMARK                         _______ _______ _______ _____ _____    ______ ____
ROOT
ATOM      1  C6  UNL     1     156.870 158.159 169.381  0.00  0.00    +0.000 A 
ATOM      2  C7  UNL     1     156.944 157.782 168.043  0.00  0.00    +0.000 A 
ATOM      3  C8  UNL     1     158.125 157.781 167.330  0.00  0.00    +0.000 A 
ATOM      4  C9  UNL     1     159.300 158.165 167.936  0.00  0.00    +0.000 A 
ATOM      5  N2  UNL     1     160.285 158.068 167.010  0.00  0.00    +0.000 N 
ATOM      6  C17 UNL     1     159.753 157.636 165.849  0.00  0.00    +0.000 A 
ATOM      7  N3  UNL     1     158.448 157.468 166.061  0.00  0.00    +0.000 NA
ATOM      8  C18 UNL     1     159.253 158.541 169.254  0.00  0.00    +0.000 A 
ATOM      9  C19 UNL     1     158.061 158.538 169.962  0.00  0.00    +0.000 A 
ENDROOT
BRANCH   5  10
ATOM     10  C10 UNL     1     161.643 158.381 167.263  0.00  0.00    +0.000 A 
ATOM     11  C11 UNL     1     162.112 159.670 167.214  0.00  0.00    +0.000 A 
ATOM     12  C12 UNL     1     163.447 159.899 167.472  0.00  0.00    +0.000 A 
ATOM     13  C13 UNL     1     164.322 158.884 167.773  0.00  0.00    +0.000 A 
ATOM     14  C15 UNL     1     163.859 157.596 167.823  0.00  0.00    +0.000 A 
ATOM     15  C16 UNL     1     162.530 157.372 167.566  0.00  0.00    +0.000 A 
BRANCH  13  16
ATOM     16  O2  UNL     1     165.650 159.209 168.019  0.00  0.00    +0.000 OA
ATOM     17  C14 UNL     1     166.358 158.605 169.054  0.00  0.00    +0.000 C 
ENDBRANCH  13  16
ENDBRANCH   5  10
BRANCH   1  18
ATOM     18  N1  UNL     1     155.627 158.151 170.083  0.00  0.00    +0.000 N 
ATOM     19  H6  UNL     1     155.251 157.226 170.382  0.00  0.00    +0.000 HD
BRANCH  18  20
ATOM     20  C5  UNL     1     154.912 159.358 170.374  0.00  0.00    +0.000 C 
BRANCH  20  22
ATOM     21  O1  UNL     1     153.855 160.233 172.422  0.00  0.00    +0.000 OA
ATOM     22  C1  UNL     1     154.876 159.702 171.796  0.00  0.00    +0.000 A 
ATOM     23  C2  UNL     1     155.894 159.526 172.706  0.00  0.00    +0.000 A 
ATOM     24  C3  UNL     1     155.398 159.991 173.904  0.00  0.00    +0.000 A 
ATOM     25  C4  UNL     1     154.114 160.426 173.682  0.00  0.00    +0.000 A 
ENDBRANCH  20  22
ENDBRANCH  18  20
ENDBRANCH   1  18
TORSDOF 5
ENDMDL
MODEL 4
REMARK VINA RESULT:      -5.6      1.770      2.488
REMARK  Name = ./3D_structures\o1_MMV617332_3D.pdb
REMARK  6 active torsions:
REMARK  status: ('A' for Active; 'I' for Inactive)
REMARK    1  A    between atoms: C1_2  and  C5_6
REMARK    2  A    between atoms: C5_6  and  N1_7
REMARK    3  A    between atoms: N1_7  and  C6_8
REMARK    4  A    between atoms: N2_12  and  C10_13
REMARK    5  A    between atoms: C13_16  and  O2_17
REMARK    6  A    between atoms: O2_17  and  C14_18
REMARK                            x       y       z     vdW  Elec       q    Type
REMARK                         _______ _______ _______ _____ _____    ______ ____
ROOT
ATOM      1  C6  UNL     1     158.263 156.626 165.403  0.00  0.00    +0.000 A 
ATOM      2  C7  UNL     1     156.877 156.544 165.495  0.00  0.00    +0.000 A 
ATOM      3  C8  UNL     1     156.162 157.093 166.539  0.00  0.00    +0.000 A 
ATOM      4  C9  UNL     1     156.817 157.757 167.552  0.00  0.00    +0.000 A 
ATOM      5  N2  UNL     1     155.876 158.185 168.430  0.00  0.00    +0.000 N 
ATOM      6  C17 UNL     1     154.660 157.806 167.989  0.00  0.00    +0.000 A 
ATOM      7  N3  UNL     1     154.853 157.147 166.846  0.00  0.00    +0.000 NA
ATOM      8  C18 UNL     1     158.183 157.850 167.485  0.00  0.00    +0.000 A 
ATOM      9  C19 UNL     1     158.893 157.295 166.431  0.00  0.00    +0.000 A 
ENDROOT
BRANCH   5  10
ATOM     10  C10 UNL     1     156.168 158.913 169.610  0.00  0.00    +0.000 A 
ATOM     11  C11 UNL     1     156.308 160.279 169.604  0.00  0.00    +0.000 A 
ATOM     12  C12 UNL     1     156.592 160.919 170.792  0.00  0.00    +0.000 A 
ATOM     13  C13 UNL     1     156.739 160.240 171.976  0.00  0.00    +0.000 A 
ATOM     14  C15 UNL     1     156.601 158.877 171.988  0.00  0.00    +0.000 A 
ATOM     15  C16 UNL     1     156.318 158.243 170.804  0.00  0.00    +0.000 A 
BRANCH  13  16
ATOM     16  O2  UNL     1     157.024 160.969 173.124  0.00  0.00    +0.000 OA
ATOM     17  C14 UNL     1     156.448 162.217 173.345  0.00  0.00    +0.000 C 
ENDBRANCH  13  16
ENDBRANCH   5  10
BRANCH   1  18
ATOM     18  N1  UNL     1     158.967 156.039 164.309  0.00  0.00    +0.000 N 
ATOM     19  H6  UNL     1     158.929 156.535 163.393  0.00  0.00    +0.000 HD
BRANCH  18  20
ATOM     20  C5  UNL     1     159.705 154.818 164.447  0.00  0.00    +0.000 C 
BRANCH  20  22
ATOM     21  O1  UNL     1     159.142 152.454 164.859  0.00  0.00    +0.000 OA
ATOM     22  C1  UNL     1     158.893 153.610 164.295  0.00  0.00    +0.000 A 
ATOM     23  C2  UNL     1     157.745 153.485 163.545  0.00  0.00    +0.000 A 
ATOM     24  C3  UNL     1     157.342 152.179 163.709  0.00  0.00    +0.000 A 
ATOM     25  C4  UNL     1     158.246 151.565 164.542  0.00  0.00    +0.000 A 
ENDBRANCH  20  22
ENDBRANCH  18  20
ENDBRANCH   1  18
TORSDOF 5
ENDMDL
MODEL 5
REMARK VINA RESULT:      -5.6      6.422      8.186
REMARK  Name = ./3D_structures\o1_MMV617332_3D.pdb
REMARK  6 active torsions:
REMARK  status: ('A' for Active; 'I' for Inactive)
REMARK    1  A    between atoms: C1_2  and  C5_6
REMARK    2  A    between atoms: C5_6  and  N1_7
REMARK    3  A    between atoms: N1_7  and  C6_8
REMARK    4  A    between atoms: N2_12  and  C10_13
REMARK    5  A    between atoms: C13_16  and  O2_17
REMARK    6  A    between atoms: O2_17  and  C14_18
REMARK                            x       y       z     vdW  Elec       q    Type
REMARK                         _______ _______ _______ _____ _____    ______ ____
ROOT
ATOM      1  C6  UNL     1     154.083 158.771 167.406  0.00  0.00    +0.000 A 
ATOM      2  C7  UNL     1     153.887 159.531 166.257  0.00  0.00    +0.000 A 
ATOM      3  C8  UNL     1     152.991 160.578 166.196  0.00  0.00    +0.000 A 
ATOM      4  C9  UNL     1     152.242 160.913 167.301  0.00  0.00    +0.000 A 
ATOM      5  N2  UNL     1     151.459 161.964 166.956  0.00  0.00    +0.000 N 
ATOM      6  C17 UNL     1     151.701 162.289 165.670  0.00  0.00    +0.000 A 
ATOM      7  N3  UNL     1     152.630 161.440 165.227  0.00  0.00    +0.000 NA
ATOM      8  C18 UNL     1     152.417 160.179 168.446  0.00  0.00    +0.000 A 
ATOM      9  C19 UNL     1     153.320 159.128 168.497  0.00  0.00    +0.000 A 
ENDROOT
BRANCH   5  10
ATOM     10  C10 UNL     1     150.544 162.593 167.837  0.00  0.00    +0.000 A 
ATOM     11  C11 UNL     1     150.959 163.464 168.814  0.00  0.00    +0.000 A 
ATOM     12  C12 UNL     1     150.011 164.037 169.634  0.00  0.00    +0.000 A 
ATOM     13  C13 UNL     1     148.671 163.768 169.509  0.00  0.00    +0.000 A 
ATOM     14  C15 UNL     1     148.251 162.900 168.536  0.00  0.00    +0.000 A 
ATOM     15  C16 UNL     1     149.197 162.330 167.721  0.00  0.00    +0.000 A 
BRANCH  13  16
ATOM     16  O2  UNL     1     147.787 164.393 170.380  0.00  0.00    +0.000 OA
ATOM     17  C14 UNL     1     146.412 164.222 170.255  0.00  0.00    +0.000 C 
ENDBRANCH  13  16
ENDBRANCH   5  10
BRANCH   1  18
ATOM     18  N1  UNL     1     155.017 157.691 167.428  0.00  0.00    +0.000 N 
ATOM     19  H6  UNL     1     155.414 157.381 166.515  0.00  0.00    +0.000 HD
BRANCH  18  20
ATOM     20  C5  UNL     1     155.406 157.048 168.648  0.00  0.00    +0.000 C 
BRANCH  20  22
ATOM     21  O1  UNL     1     157.762 157.772 168.693  0.00  0.00    +0.000 OA
ATOM     22  C1  UNL     1     156.596 157.625 169.273  0.00  0.00    +0.000 A 
ATOM     23  C2  UNL     1     156.693 158.106 170.560  0.00  0.00    +0.000 A 
ATOM     24  C3  UNL     1     157.992 158.542 170.690  0.00  0.00    +0.000 A 
ATOM     25  C4  UNL     1     158.630 158.315 169.495  0.00  0.00    +0.000 A 
ENDBRANCH  20  22
ENDBRANCH  18  20
ENDBRANCH   1  18
TORSDOF 5
ENDMDL
MODEL 6
REMARK VINA RESULT:      -5.5      9.289     11.871
REMARK  Name = ./3D_structures\o1_MMV617332_3D.pdb
REMARK  6 active torsions:
REMARK  status: ('A' for Active; 'I' for Inactive)
REMARK    1  A    between atoms: C1_2  and  C5_6
REMARK    2  A    between atoms: C5_6  and  N1_7
REMARK    3  A    between atoms: N1_7  and  C6_8
REMARK    4  A    between atoms: N2_12  and  C10_13
REMARK    5  A    between atoms: C13_16  and  O2_17
REMARK    6  A    between atoms: O2_17  and  C14_18
REMARK                            x       y       z     vdW  Elec       q    Type
REMARK                         _______ _______ _______ _____ _____    ______ ____
ROOT
ATOM      1  C6  UNL     1     148.234 162.967 167.545  0.00  0.00    +0.000 A 
ATOM      2  C7  UNL     1     149.274 163.842 167.248  0.00  0.00    +0.000 A 
ATOM      3  C8  UNL     1     150.582 163.427 167.100  0.00  0.00    +0.000 A 
ATOM      4  C9  UNL     1     150.907 162.098 167.248  0.00  0.00    +0.000 A 
ATOM      5  N2  UNL     1     152.243 161.983 167.050  0.00  0.00    +0.000 N 
ATOM      6  C17 UNL     1     152.754 163.202 166.786  0.00  0.00    +0.000 A 
ATOM      7  N3  UNL     1     151.735 164.062 166.821  0.00  0.00    +0.000 NA
ATOM      8  C18 UNL     1     149.898 161.215 167.541  0.00  0.00    +0.000 A 
ATOM      9  C19 UNL     1     148.588 161.642 167.687  0.00  0.00    +0.000 A 
ENDROOT
BRANCH   5  10
ATOM     10  C10 UNL     1     152.951 160.757 167.120  0.00  0.00    +0.000 A 
ATOM     11  C11 UNL     1     153.396 160.111 165.993  0.00  0.00    +0.000 A 
ATOM     12  C12 UNL     1     154.079 158.923 166.138  0.00  0.00    +0.000 A 
ATOM     13  C13 UNL     1     154.328 158.364 167.368  0.00  0.00    +0.000 A 
ATOM     14  C15 UNL     1     153.886 159.004 168.496  0.00  0.00    +0.000 A 
ATOM     15  C16 UNL     1     153.207 160.187 168.347  0.00  0.00    +0.000 A 
BRANCH  13  16
ATOM     16  O2  UNL     1     155.024 157.162 167.418  0.00  0.00    +0.000 OA
ATOM     17  C14 UNL     1     155.971 156.922 168.410  0.00  0.00    +0.000 C 
ENDBRANCH  13  16
ENDBRANCH   5  10
BRANCH   1  18
ATOM     18  N1  UNL     1     146.894 163.436 167.696  0.00  0.00    +0.000 N 
ATOM     19  H6  UNL     1     146.585 163.709 168.654  0.00  0.00    +0.000 HD
BRANCH  18  20
ATOM     20  C5  UNL     1     145.995 163.536 166.584  0.00  0.00    +0.000 C 
BRANCH  20  22
ATOM     21  O1  UNL     1     144.477 165.374 165.954  0.00  0.00    +0.000 OA
ATOM     22  C1  UNL     1     145.679 164.911 166.193  0.00  0.00    +0.000 A 
ATOM     23  C2  UNL     1     146.579 165.938 166.015  0.00  0.00    +0.000 A 
ATOM     24  C3  UNL     1     145.821 167.029 165.656  0.00  0.00    +0.000 A 
ATOM     25  C4  UNL     1     144.506 166.633 165.630  0.00  0.00    +0.000 A 
ENDBRANCH  20  22
ENDBRANCH  18  20
ENDBRANCH   1  18
TORSDOF 5
ENDMDL
MODEL 7
REMARK VINA RESULT:      -5.4      1.677      8.472
REMARK  Name = ./3D_structures\o1_MMV617332_3D.pdb
REMARK  6 active torsions:
REMARK  status: ('A' for Active; 'I' for Inactive)
REMARK    1  A    between atoms: C1_2  and  C5_6
REMARK    2  A    between atoms: C5_6  and  N1_7
REMARK    3  A    between atoms: N1_7  and  C6_8
REMARK    4  A    between atoms: N2_12  and  C10_13
REMARK    5  A    between atoms: C13_16  and  O2_17
REMARK    6  A    between atoms: O2_17  and  C14_18
REMARK                            x       y       z     vdW  Elec       q    Type
REMARK                         _______ _______ _______ _____ _____    ______ ____
ROOT
ATOM      1  C6  UNL     1     157.361 158.105 168.785  0.00  0.00    +0.000 A 
ATOM      2  C7  UNL     1     158.552 158.478 168.168  0.00  0.00    +0.000 A 
ATOM      3  C8  UNL     1     159.008 157.892 167.006  0.00  0.00    +0.000 A 
ATOM      4  C9  UNL     1     158.280 156.892 166.403  0.00  0.00    +0.000 A 
ATOM      5  N2  UNL     1     158.958 156.508 165.294  0.00  0.00    +0.000 N 
ATOM      6  C17 UNL     1     160.086 157.241 165.194  0.00  0.00    +0.000 A 
ATOM      7  N3  UNL     1     160.098 158.072 166.237  0.00  0.00    +0.000 NA
ATOM      8  C18 UNL     1     157.102 156.507 166.991  0.00  0.00    +0.000 A 
ATOM      9  C19 UNL     1     156.652 157.101 168.159  0.00  0.00    +0.000 A 
ENDROOT
BRANCH   5  10
ATOM     10  C10 UNL     1     158.519 155.494 164.407  0.00  0.00    +0.000 A 
ATOM     11  C11 UNL     1     157.836 155.785 163.252  0.00  0.00    +0.000 A 
ATOM     12  C12 UNL     1     157.439 154.746 162.438  0.00  0.00    +0.000 A 
ATOM     13  C13 UNL     1     157.702 153.433 162.742  0.00  0.00    +0.000 A 
ATOM     14  C15 UNL     1     158.383 153.136 163.893  0.00  0.00    +0.000 A 
ATOM     15  C16 UNL     1     158.776 154.173 164.701  0.00  0.00    +0.000 A 
BRANCH  13  16
ATOM     16  O2  UNL     1     157.265 152.451 161.862  0.00  0.00    +0.000 OA
ATOM     17  C14 UNL     1     156.115 151.711 162.124  0.00  0.00    +0.000 C 
ENDBRANCH  13  16
ENDBRANCH   5  10
BRANCH   1  18
ATOM     18  N1  UNL     1     156.925 158.732 169.991  0.00  0.00    +0.000 N 
ATOM     19  H6  UNL     1     157.618 158.817 170.765  0.00  0.00    +0.000 HD
BRANCH  18  20
ATOM     20  C5  UNL     1     155.592 159.233 170.147  0.00  0.00    +0.000 C 
BRANCH  20  22
ATOM     21  O1  UNL     1     154.152 160.213 171.891  0.00  0.00    +0.000 OA
ATOM     22  C1  UNL     1     155.249 159.601 171.521  0.00  0.00    +0.000 A 
ATOM     23  C2  UNL     1     156.011 159.367 172.644  0.00  0.00    +0.000 A 
ATOM     24  C3  UNL     1     155.284 159.885 173.693  0.00  0.00    +0.000 A 
ATOM     25  C4  UNL     1     154.122 160.407 173.177  0.00  0.00    +0.000 A 
ENDBRANCH  20  22
ENDBRANCH  18  20
ENDBRANCH   1  18
TORSDOF 5
ENDMDL
MODEL 8
REMARK VINA RESULT:      -5.4      7.363     10.585
REMARK  Name = ./3D_structures\o1_MMV617332_3D.pdb
REMARK  6 active torsions:
REMARK  status: ('A' for Active; 'I' for Inactive)
REMARK    1  A    between atoms: C1_2  and  C5_6
REMARK    2  A    between atoms: C5_6  and  N1_7
REMARK    3  A    between atoms: N1_7  and  C6_8
REMARK    4  A    between atoms: N2_12  and  C10_13
REMARK    5  A    between atoms: C13_16  and  O2_17
REMARK    6  A    between atoms: O2_17  and  C14_18
REMARK                            x       y       z     vdW  Elec       q    Type
REMARK                         _______ _______ _______ _____ _____    ______ ____
ROOT
ATOM      1  C6  UNL     1     149.795 161.489 167.721  0.00  0.00    +0.000 A 
ATOM      2  C7  UNL     1     149.408 160.577 168.699  0.00  0.00    +0.000 A 
ATOM      3  C8  UNL     1     150.292 159.709 169.305  0.00  0.00    +0.000 A 
ATOM      4  C9  UNL     1     151.622 159.717 168.951  0.00  0.00    +0.000 A 
ATOM      5  N2  UNL     1     152.246 158.774 169.698  0.00  0.00    +0.000 N 
ATOM      6  C17 UNL     1     151.340 158.181 170.502  0.00  0.00    +0.000 A 
ATOM      7  N3  UNL     1     150.165 158.760 170.251  0.00  0.00    +0.000 NA
ATOM      8  C18 UNL     1     152.029 160.607 167.990  0.00  0.00    +0.000 A 
ATOM      9  C19 UNL     1     151.132 161.475 167.387  0.00  0.00    +0.000 A 
ENDROOT
BRANCH   5  10
ATOM     10  C10 UNL     1     153.631 158.486 169.615  0.00  0.00    +0.000 A 
ATOM     11  C11 UNL     1     154.552 159.119 170.413  0.00  0.00    +0.000 A 
ATOM     12  C12 UNL     1     155.883 158.788 170.276  0.00  0.00    +0.000 A 
ATOM     13  C13 UNL     1     156.319 157.851 169.372  0.00  0.00    +0.000 A 
ATOM     14  C15 UNL     1     155.404 157.216 168.573  0.00  0.00    +0.000 A 
ATOM     15  C16 UNL     1     154.080 157.549 168.712  0.00  0.00    +0.000 A 
BRANCH  13  16
ATOM     16  O2  UNL     1     157.680 157.580 169.304  0.00  0.00    +0.000 OA
ATOM     17  C14 UNL     1     158.617 158.483 169.796  0.00  0.00    +0.000 C 
ENDBRANCH  13  16
ENDBRANCH   5  10
BRANCH   1  18
ATOM     18  N1  UNL     1     148.848 162.367 167.114  0.00  0.00    +0.000 N 
ATOM     19  H6  UNL     1     148.221 161.967 166.383  0.00  0.00    +0.000 HD
BRANCH  18  20
ATOM     20  C5  UNL     1     148.748 163.749 167.483  0.00  0.00    +0.000 C 
BRANCH  20  22
ATOM     21  O1  UNL     1     147.485 163.383 169.568  0.00  0.00    +0.000 OA
ATOM     22  C1  UNL     1     147.686 164.033 168.448  0.00  0.00    +0.000 A 
ATOM     23  C2  UNL     1     146.731 165.020 168.347  0.00  0.00    +0.000 A 
ATOM     24  C3  UNL     1     145.960 164.900 169.482  0.00  0.00    +0.000 A 
ATOM     25  C4  UNL     1     146.468 163.861 170.223  0.00  0.00    +0.000 A 
ENDBRANCH  20  22
ENDBRANCH  18  20
ENDBRANCH   1  18
TORSDOF 5
ENDMDL
MODEL 9
REMARK VINA RESULT:      -5.4     10.872     12.937
REMARK  Name = ./3D_structures\o1_MMV617332_3D.pdb
REMARK  6 active torsions:
REMARK  status: ('A' for Active; 'I' for Inactive)
REMARK    1  A    between atoms: C1_2  and  C5_6
REMARK    2  A    between atoms: C5_6  and  N1_7
REMARK    3  A    between atoms: N1_7  and  C6_8
REMARK    4  A    between atoms: N2_12  and  C10_13
REMARK    5  A    between atoms: C13_16  and  O2_17
REMARK    6  A    between atoms: O2_17  and  C14_18
REMARK                            x       y       z     vdW  Elec       q    Type
REMARK                         _______ _______ _______ _____ _____    ______ ____
ROOT
ATOM      1  C6  UNL     1     150.096 162.360 168.862  0.00  0.00    +0.000 A 
ATOM      2  C7  UNL     1     149.634 163.293 169.785  0.00  0.00    +0.000 A 
ATOM      3  C8  UNL     1     148.405 163.911 169.673  0.00  0.00    +0.000 A 
ATOM      4  C9  UNL     1     147.576 163.615 168.615  0.00  0.00    +0.000 A 
ATOM      5  N2  UNL     1     146.452 164.360 168.760  0.00  0.00    +0.000 N 
ATOM      6  C17 UNL     1     146.563 165.108 169.877  0.00  0.00    +0.000 A 
ATOM      7  N3  UNL     1     147.750 164.823 170.415  0.00  0.00    +0.000 NA
ATOM      8  C18 UNL     1     148.009 162.698 167.692  0.00  0.00    +0.000 A 
ATOM      9  C19 UNL     1     149.245 162.082 167.814  0.00  0.00    +0.000 A 
ENDROOT
BRANCH   5  10
ATOM     10  C10 UNL     1     145.359 164.328 167.859  0.00  0.00    +0.000 A 
ATOM     11  C11 UNL     1     144.345 163.410 167.982  0.00  0.00    +0.000 A 
ATOM     12  C12 UNL     1     143.313 163.439 167.068  0.00  0.00    +0.000 A 
ATOM     13  C13 UNL     1     143.266 164.350 166.042  0.00  0.00    +0.000 A 
ATOM     14  C15 UNL     1     144.275 165.268 165.915  0.00  0.00    +0.000 A 
ATOM     15  C16 UNL     1     145.300 165.236 166.827  0.00  0.00    +0.000 A 
BRANCH  13  16
ATOM     16  O2  UNL     1     142.186 164.306 165.168  0.00  0.00    +0.000 OA
ATOM     17  C14 UNL     1     142.227 163.528 164.015  0.00  0.00    +0.000 C 
ENDBRANCH  13  16
ENDBRANCH   5  10
BRANCH   1  18
ATOM     18  N1  UNL     1     151.377 161.746 169.011  0.00  0.00    +0.000 N 
ATOM     19  H6  UNL     1     151.888 161.912 169.904  0.00  0.00    +0.000 HD
BRANCH  18  20
ATOM     20  C5  UNL     1     151.950 160.929 167.982  0.00  0.00    +0.000 C 
BRANCH  20  22
ATOM     21  O1  UNL     1     152.077 158.965 169.467  0.00  0.00    +0.000 OA
ATOM     22  C1  UNL     1     152.537 159.680 168.470  0.00  0.00    +0.000 A 
ATOM     23  C2  UNL     1     153.655 159.051 167.969  0.00  0.00    +0.000 A 
ATOM     24  C3  UNL     1     153.816 157.923 168.742  0.00  0.00    +0.000 A 
ATOM     25  C4  UNL     1     152.804 157.906 169.671  0.00  0.00    +0.000 A 
ENDBRANCH  20  22
ENDBRANCH  18  20
ENDBRANCH   1  18
TORSDOF 5
ENDMDL
