MODEL 1
REMARK VINA RESULT:      -6.1      0.000      0.000
REMARK  Name = ./3D_structures\o20_MMV098836_3D.pdb
REMARK  6 active torsions:
REMARK  status: ('A' for Active; 'I' for Inactive)
REMARK    1  A    between atoms: C1_1  and  O1_2
REMARK    2  A    between atoms: O1_2  and  C2_3
REMARK    3  A    between atoms: C4_5  and  N1_6
REMARK    4  A    between atoms: N1_6  and  S1_7
REMARK    5  A    between atoms: S1_7  and  C5_10
REMARK    6  A    between atoms: C8_13  and  C9_14
REMARK                            x       y       z     vdW  Elec       q    Type
REMARK                         _______ _______ _______ _____ _____    ______ ____
ROOT
ATOM      1  C2  UNL     1     155.533 157.253 166.594  0.00  0.00    +0.000 A 
ATOM      2  C3  UNL     1     155.525 157.222 167.970  0.00  0.00    +0.000 A 
ATOM      3  C4  UNL     1     154.826 158.138 168.733  0.00  0.00    +0.000 A 
ATOM      4  C12 UNL     1     154.094 159.140 168.085  0.00  0.00    +0.000 A 
ATOM      5  N2  UNL     1     153.396 160.056 168.781  0.00  0.00    +0.000 NA
ATOM      6  C13 UNL     1     152.678 161.038 168.208  0.00  0.00    +0.000 A 
ATOM      7  C14 UNL     1     152.661 161.104 166.830  0.00  0.00    +0.000 A 
ATOM      8  C15 UNL     1     153.375 160.167 166.096  0.00  0.00    +0.000 A 
ATOM      9  C16 UNL     1     154.104 159.170 166.709  0.00  0.00    +0.000 A 
ATOM     10  C17 UNL     1     154.810 158.244 165.968  0.00  0.00    +0.000 A 
ENDROOT
BRANCH   1  12
ATOM     11  C1  UNL     1     157.689 156.240 166.030  0.00  0.00    +0.000 C 
ATOM     12  O1  UNL     1     156.262 156.296 165.915  0.00  0.00    +0.000 OA
ENDBRANCH   1  12
BRANCH   3  13
ATOM     13  N1  UNL     1     154.830 158.103 170.151  0.00  0.00    +0.000 N 
ATOM     14  H5  UNL     1     153.985 157.658 170.612  0.00  0.00    +0.000 HD
BRANCH  13  15
ATOM     15  S1  UNL     1     156.093 158.727 171.121  0.00  0.00    +0.000 S 
ATOM     16  O2  UNL     1     156.571 157.654 172.070  0.00  0.00    +0.000 OA
ATOM     17  O3  UNL     1     155.686 159.943 171.904  0.00  0.00    +0.000 OA
BRANCH  15  18
ATOM     18  C5  UNL     1     157.459 159.169 170.135  0.00  0.00    +0.000 A 
ATOM     19  C6  UNL     1     157.609 160.507 169.751  0.00  0.00    +0.000 A 
ATOM     20  C7  UNL     1     158.644 160.958 168.973  0.00  0.00    +0.000 A 
ATOM     21  C8  UNL     1     159.579 160.039 168.552  0.00  0.00    +0.000 A 
ATOM     22  C9  UNL     1     160.711 160.471 167.713  0.00  0.00    +0.000 C 
ATOM     23  C10 UNL     1     159.454 158.703 168.919  0.00  0.00    +0.000 A 
ATOM     24  C11 UNL     1     158.404 158.272 169.704  0.00  0.00    +0.000 A 
ENDBRANCH  15  18
ENDBRANCH  13  15
ENDBRANCH   3  13
TORSDOF 4
ENDMDL
MODEL 2
REMARK VINA RESULT:      -5.8      2.834      5.719
REMARK  Name = ./3D_structures\o20_MMV098836_3D.pdb
REMARK  6 active torsions:
REMARK  status: ('A' for Active; 'I' for Inactive)
REMARK    1  A    between atoms: C1_1  and  O1_2
REMARK    2  A    between atoms: O1_2  and  C2_3
REMARK    3  A    between atoms: C4_5  and  N1_6
REMARK    4  A    between atoms: N1_6  and  S1_7
REMARK    5  A    between atoms: S1_7  and  C5_10
REMARK    6  A    between atoms: C8_13  and  C9_14
REMARK                            x       y       z     vdW  Elec       q    Type
REMARK                         _______ _______ _______ _____ _____    ______ ____
ROOT
ATOM      1  C2  UNL     1     159.640 159.930 168.269  0.00  0.00    +0.000 A 
ATOM      2  C3  UNL     1     159.313 158.868 167.456  0.00  0.00    +0.000 A 
ATOM      3  C4  UNL     1     158.328 157.955 167.783  0.00  0.00    +0.000 A 
ATOM      4  C12 UNL     1     157.632 158.111 168.987  0.00  0.00    +0.000 A 
ATOM      5  N2  UNL     1     156.665 157.250 169.351  0.00  0.00    +0.000 NA
ATOM      6  C13 UNL     1     155.967 157.355 170.496  0.00  0.00    +0.000 A 
ATOM      7  C14 UNL     1     156.265 158.406 171.339  0.00  0.00    +0.000 A 
ATOM      8  C15 UNL     1     157.260 159.304 170.979  0.00  0.00    +0.000 A 
ATOM      9  C16 UNL     1     157.961 159.173 169.798  0.00  0.00    +0.000 A 
ATOM     10  C17 UNL     1     158.948 160.073 169.451  0.00  0.00    +0.000 A 
ENDROOT
BRANCH   1  12
ATOM     11  C1  UNL     1     161.881 160.290 167.352  0.00  0.00    +0.000 C 
ATOM     12  O1  UNL     1     160.639 160.792 167.860  0.00  0.00    +0.000 OA
ENDBRANCH   1  12
BRANCH   3  13
ATOM     13  N1  UNL     1     158.004 156.858 166.943  0.00  0.00    +0.000 N 
ATOM     14  H5  UNL     1     158.335 155.904 167.268  0.00  0.00    +0.000 HD
BRANCH  13  15
ATOM     15  S1  UNL     1     157.134 156.998 165.478  0.00  0.00    +0.000 S 
ATOM     16  O2  UNL     1     156.358 155.725 165.233  0.00  0.00    +0.000 OA
ATOM     17  O3  UNL     1     158.016 157.281 164.295  0.00  0.00    +0.000 OA
BRANCH  15  18
ATOM     18  C5  UNL     1     155.964 158.285 165.582  0.00  0.00    +0.000 A 
ATOM     19  C6  UNL     1     156.261 159.516 164.983  0.00  0.00    +0.000 A 
ATOM     20  C7  UNL     1     155.413 160.593 165.012  0.00  0.00    +0.000 A 
ATOM     21  C8  UNL     1     154.210 160.446 165.666  0.00  0.00    +0.000 A 
ATOM     22  C9  UNL     1     153.262 161.573 165.727  0.00  0.00    +0.000 C 
ATOM     23  C10 UNL     1     153.891 159.234 166.269  0.00  0.00    +0.000 A 
ATOM     24  C11 UNL     1     154.759 158.163 166.228  0.00  0.00    +0.000 A 
ENDBRANCH  15  18
ENDBRANCH  13  15
ENDBRANCH   3  13
TORSDOF 4
ENDMDL
MODEL 3
REMARK VINA RESULT:      -5.8      3.258      6.204
REMARK  Name = ./3D_structures\o20_MMV098836_3D.pdb
REMARK  6 active torsions:
REMARK  status: ('A' for Active; 'I' for Inactive)
REMARK    1  A    between atoms: C1_1  and  O1_2
REMARK    2  A    between atoms: O1_2  and  C2_3
REMARK    3  A    between atoms: C4_5  and  N1_6
REMARK    4  A    between atoms: N1_6  and  S1_7
REMARK    5  A    between atoms: S1_7  and  C5_10
REMARK    6  A    between atoms: C8_13  and  C9_14
REMARK                            x       y       z     vdW  Elec       q    Type
REMARK                         _______ _______ _______ _____ _____    ______ ____
ROOT
ATOM      1  C2  UNL     1     157.660 158.955 170.552  0.00  0.00    +0.000 A 
ATOM      2  C3  UNL     1     156.928 159.646 169.613  0.00  0.00    +0.000 A 
ATOM      3  C4  UNL     1     155.764 160.323 169.924  0.00  0.00    +0.000 A 
ATOM      4  C12 UNL     1     155.305 160.308 171.247  0.00  0.00    +0.000 A 
ATOM      5  N2  UNL     1     154.178 160.950 171.602  0.00  0.00    +0.000 NA
ATOM      6  C13 UNL     1     153.694 160.967 172.857  0.00  0.00    +0.000 A 
ATOM      7  C14 UNL     1     154.399 160.286 173.828  0.00  0.00    +0.000 A 
ATOM      8  C15 UNL     1     155.565 159.617 173.480  0.00  0.00    +0.000 A 
ATOM      9  C16 UNL     1     156.038 159.616 172.184  0.00  0.00    +0.000 A 
ATOM     10  C17 UNL     1     157.198 158.948 171.850  0.00  0.00    +0.000 A 
ENDROOT
BRANCH   1  12
ATOM     11  C1  UNL     1     159.242 158.360 168.782  0.00  0.00    +0.000 C 
ATOM     12  O1  UNL     1     158.812 158.309 170.148  0.00  0.00    +0.000 OA
ENDBRANCH   1  12
BRANCH   3  13
ATOM     13  N1  UNL     1     155.011 161.024 168.947  0.00  0.00    +0.000 N 
ATOM     14  H5  UNL     1     155.165 162.073 168.901  0.00  0.00    +0.000 HD
BRANCH  13  15
ATOM     15  S1  UNL     1     153.903 160.284 167.877  0.00  0.00    +0.000 S 
ATOM     16  O2  UNL     1     154.602 159.181 167.117  0.00  0.00    +0.000 OA
ATOM     17  O3  UNL     1     153.290 161.251 166.904  0.00  0.00    +0.000 OA
BRANCH  15  18
ATOM     18  C5  UNL     1     152.604 159.536 168.763  0.00  0.00    +0.000 A 
ATOM     19  C6  UNL     1     152.809 158.268 169.321  0.00  0.00    +0.000 A 
ATOM     20  C7  UNL     1     151.851 157.591 170.031  0.00  0.00    +0.000 A 
ATOM     21  C8  UNL     1     150.626 158.199 170.199  0.00  0.00    +0.000 A 
ATOM     22  C9  UNL     1     149.561 157.514 170.953  0.00  0.00    +0.000 C 
ATOM     23  C10 UNL     1     150.396 159.458 169.655  0.00  0.00    +0.000 A 
ATOM     24  C11 UNL     1     151.375 160.121 168.944  0.00  0.00    +0.000 A 
ENDBRANCH  15  18
ENDBRANCH  13  15
ENDBRANCH   3  13
TORSDOF 4
ENDMDL
MODEL 4
REMARK VINA RESULT:      -5.8      2.569      3.467
REMARK  Name = ./3D_structures\o20_MMV098836_3D.pdb
REMARK  6 active torsions:
REMARK  status: ('A' for Active; 'I' for Inactive)
REMARK    1  A    between atoms: C1_1  and  O1_2
REMARK    2  A    between atoms: O1_2  and  C2_3
REMARK    3  A    between atoms: C4_5  and  N1_6
REMARK    4  A    between atoms: N1_6  and  S1_7
REMARK    5  A    between atoms: S1_7  and  C5_10
REMARK    6  A    between atoms: C8_13  and  C9_14
REMARK                            x       y       z     vdW  Elec       q    Type
REMARK                         _______ _______ _______ _____ _____    ______ ____
ROOT
ATOM      1  C2  UNL     1     155.968 157.369 166.078  0.00  0.00    +0.000 A 
ATOM      2  C3  UNL     1     157.050 158.101 166.512  0.00  0.00    +0.000 A 
ATOM      3  C4  UNL     1     156.952 159.428 166.886  0.00  0.00    +0.000 A 
ATOM      4  C12 UNL     1     155.703 160.058 166.824  0.00  0.00    +0.000 A 
ATOM      5  N2  UNL     1     155.554 161.347 167.177  0.00  0.00    +0.000 NA
ATOM      6  C13 UNL     1     154.378 161.999 167.135  0.00  0.00    +0.000 A 
ATOM      7  C14 UNL     1     153.269 161.300 166.706  0.00  0.00    +0.000 A 
ATOM      8  C15 UNL     1     153.404 159.969 166.338  0.00  0.00    +0.000 A 
ATOM      9  C16 UNL     1     154.623 159.324 166.390  0.00  0.00    +0.000 A 
ATOM     10  C17 UNL     1     154.745 158.000 166.022  0.00  0.00    +0.000 A 
ENDROOT
BRANCH   1  12
ATOM     11  C1  UNL     1     157.322 155.649 164.983  0.00  0.00    +0.000 C 
ATOM     12  O1  UNL     1     156.163 156.048 165.725  0.00  0.00    +0.000 OA
ENDBRANCH   1  12
BRANCH   3  13
ATOM     13  N1  UNL     1     158.074 160.177 167.323  0.00  0.00    +0.000 N 
ATOM     14  H5  UNL     1     158.352 161.003 166.718  0.00  0.00    +0.000 HD
BRANCH  13  15
ATOM     15  S1  UNL     1     158.974 159.821 168.733  0.00  0.00    +0.000 S 
ATOM     16  O2  UNL     1     160.039 160.874 168.926  0.00  0.00    +0.000 OA
ATOM     17  O3  UNL     1     159.614 158.462 168.694  0.00  0.00    +0.000 OA
BRANCH  15  18
ATOM     18  C5  UNL     1     157.950 159.880 170.142  0.00  0.00    +0.000 A 
ATOM     19  C6  UNL     1     157.521 158.676 170.714  0.00  0.00    +0.000 A 
ATOM     20  C7  UNL     1     156.711 158.612 171.819  0.00  0.00    +0.000 A 
ATOM     21  C8  UNL     1     156.304 159.800 172.386  0.00  0.00    +0.000 A 
ATOM     22  C9  UNL     1     155.432 159.787 173.575  0.00  0.00    +0.000 C 
ATOM     23  C10 UNL     1     156.716 161.009 171.837  0.00  0.00    +0.000 A 
ATOM     24  C11 UNL     1     157.532 161.050 170.725  0.00  0.00    +0.000 A 
ENDBRANCH  15  18
ENDBRANCH  13  15
ENDBRANCH   3  13
TORSDOF 4
ENDMDL
MODEL 5
REMARK VINA RESULT:      -5.7      1.572      3.336
REMARK  Name = ./3D_structures\o20_MMV098836_3D.pdb
REMARK  6 active torsions:
REMARK  status: ('A' for Active; 'I' for Inactive)
REMARK    1  A    between atoms: C1_1  and  O1_2
REMARK    2  A    between atoms: O1_2  and  C2_3
REMARK    3  A    between atoms: C4_5  and  N1_6
REMARK    4  A    between atoms: N1_6  and  S1_7
REMARK    5  A    between atoms: S1_7  and  C5_10
REMARK    6  A    between atoms: C8_13  and  C9_14
REMARK                            x       y       z     vdW  Elec       q    Type
REMARK                         _______ _______ _______ _____ _____    ______ ____
ROOT
ATOM      1  C2  UNL     1     153.402 159.695 167.239  0.00  0.00    +0.000 A 
ATOM      2  C3  UNL     1     153.714 159.231 168.497  0.00  0.00    +0.000 A 
ATOM      3  C4  UNL     1     154.716 158.306 168.724  0.00  0.00    +0.000 A 
ATOM      4  C12 UNL     1     155.446 157.818 167.633  0.00  0.00    +0.000 A 
ATOM      5  N2  UNL     1     156.430 156.917 167.800  0.00  0.00    +0.000 NA
ATOM      6  C13 UNL     1     157.161 156.416 166.787  0.00  0.00    +0.000 A 
ATOM      7  C14 UNL     1     156.878 156.856 165.510  0.00  0.00    +0.000 A 
ATOM      8  C15 UNL     1     155.866 157.786 165.320  0.00  0.00    +0.000 A 
ATOM      9  C16 UNL     1     155.131 158.283 166.377  0.00  0.00    +0.000 A 
ATOM     10  C17 UNL     1     154.127 159.207 166.175  0.00  0.00    +0.000 A 
ENDROOT
BRANCH   1  12
ATOM     11  C1  UNL     1     152.094 161.221 165.842  0.00  0.00    +0.000 C 
ATOM     12  O1  UNL     1     152.384 160.620 167.110  0.00  0.00    +0.000 OA
ENDBRANCH   1  12
BRANCH   3  13
ATOM     13  N1  UNL     1     155.024 157.827 170.023  0.00  0.00    +0.000 N 
ATOM     14  H5  UNL     1     154.598 156.893 170.292  0.00  0.00    +0.000 HD
BRANCH  13  15
ATOM     15  S1  UNL     1     156.019 158.656 171.139  0.00  0.00    +0.000 S 
ATOM     16  O2  UNL     1     156.635 157.662 172.095  0.00  0.00    +0.000 OA
ATOM     17  O3  UNL     1     155.278 159.707 171.917  0.00  0.00    +0.000 OA
BRANCH  15  18
ATOM     18  C5  UNL     1     157.337 159.443 170.316  0.00  0.00    +0.000 A 
ATOM     19  C6  UNL     1     158.365 158.656 169.783  0.00  0.00    +0.000 A 
ATOM     20  C7  UNL     1     159.449 159.176 169.122  0.00  0.00    +0.000 A 
ATOM     21  C8  UNL     1     159.519 160.545 168.982  0.00  0.00    +0.000 A 
ATOM     22  C9  UNL     1     160.663 161.156 168.281  0.00  0.00    +0.000 C 
ATOM     23  C10 UNL     1     158.511 161.349 169.502  0.00  0.00    +0.000 A 
ATOM     24  C11 UNL     1     157.429 160.804 170.163  0.00  0.00    +0.000 A 
ENDBRANCH  15  18
ENDBRANCH  13  15
ENDBRANCH   3  13
TORSDOF 4
ENDMDL
MODEL 6
REMARK VINA RESULT:      -5.6      2.679      6.188
REMARK  Name = ./3D_structures\o20_MMV098836_3D.pdb
REMARK  6 active torsions:
REMARK  status: ('A' for Active; 'I' for Inactive)
REMARK    1  A    between atoms: C1_1  and  O1_2
REMARK    2  A    between atoms: O1_2  and  C2_3
REMARK    3  A    between atoms: C4_5  and  N1_6
REMARK    4  A    between atoms: N1_6  and  S1_7
REMARK    5  A    between atoms: S1_7  and  C5_10
REMARK    6  A    between atoms: C8_13  and  C9_14
REMARK                            x       y       z     vdW  Elec       q    Type
REMARK                         _______ _______ _______ _____ _____    ______ ____
ROOT
ATOM      1  C2  UNL     1     157.890 158.646 170.135  0.00  0.00    +0.000 A 
ATOM      2  C3  UNL     1     156.877 159.149 169.350  0.00  0.00    +0.000 A 
ATOM      3  C4  UNL     1     157.009 159.326 167.985  0.00  0.00    +0.000 A 
ATOM      4  C12 UNL     1     158.220 158.982 167.372  0.00  0.00    +0.000 A 
ATOM      5  N2  UNL     1     158.400 159.135 166.048  0.00  0.00    +0.000 NA
ATOM      6  C13 UNL     1     159.541 158.821 165.411  0.00  0.00    +0.000 A 
ATOM      7  C14 UNL     1     160.581 158.314 166.163  0.00  0.00    +0.000 A 
ATOM      8  C15 UNL     1     160.413 158.149 167.531  0.00  0.00    +0.000 A 
ATOM      9  C16 UNL     1     159.231 158.480 168.160  0.00  0.00    +0.000 A 
ATOM     10  C17 UNL     1     159.076 158.312 169.520  0.00  0.00    +0.000 A 
ENDROOT
BRANCH   1  12
ATOM     11  C1  UNL     1     156.335 158.523 172.022  0.00  0.00    +0.000 C 
ATOM     12  O1  UNL     1     157.666 158.504 171.491  0.00  0.00    +0.000 OA
ENDBRANCH   1  12
BRANCH   3  13
ATOM     13  N1  UNL     1     155.963 159.853 167.185  0.00  0.00    +0.000 N 
ATOM     14  H5  UNL     1     156.080 160.857 166.861  0.00  0.00    +0.000 HD
BRANCH  13  15
ATOM     15  S1  UNL     1     154.567 158.976 166.734  0.00  0.00    +0.000 S 
ATOM     16  O2  UNL     1     154.965 157.576 166.328  0.00  0.00    +0.000 OA
ATOM     17  O3  UNL     1     153.803 159.623 165.614  0.00  0.00    +0.000 OA
BRANCH  15  18
ATOM     18  C5  UNL     1     153.482 158.815 168.087  0.00  0.00    +0.000 A 
ATOM     19  C6  UNL     1     152.585 159.856 168.360  0.00  0.00    +0.000 A 
ATOM     20  C7  UNL     1     151.695 159.831 169.401  0.00  0.00    +0.000 A 
ATOM     21  C8  UNL     1     151.690 158.721 170.217  0.00  0.00    +0.000 A 
ATOM     22  C9  UNL     1     150.753 158.644 171.352  0.00  0.00    +0.000 C 
ATOM     23  C10 UNL     1     152.570 157.673 169.968  0.00  0.00    +0.000 A 
ATOM     24  C11 UNL     1     153.458 157.719 168.913  0.00  0.00    +0.000 A 
ENDBRANCH  15  18
ENDBRANCH  13  15
ENDBRANCH   3  13
TORSDOF 4
ENDMDL
MODEL 7
REMARK VINA RESULT:      -5.5      6.489      9.046
REMARK  Name = ./3D_structures\o20_MMV098836_3D.pdb
REMARK  6 active torsions:
REMARK  status: ('A' for Active; 'I' for Inactive)
REMARK    1  A    between atoms: C1_1  and  O1_2
REMARK    2  A    between atoms: O1_2  and  C2_3
REMARK    3  A    between atoms: C4_5  and  N1_6
REMARK    4  A    between atoms: N1_6  and  S1_7
REMARK    5  A    between atoms: S1_7  and  C5_10
REMARK    6  A    between atoms: C8_13  and  C9_14
REMARK                            x       y       z     vdW  Elec       q    Type
REMARK                         _______ _______ _______ _____ _____    ______ ____
ROOT
ATOM      1  C2  UNL     1     147.718 162.579 167.494  0.00  0.00    +0.000 A 
ATOM      2  C3  UNL     1     148.821 163.401 167.567  0.00  0.00    +0.000 A 
ATOM      3  C4  UNL     1     148.802 164.715 167.139  0.00  0.00    +0.000 A 
ATOM      4  C12 UNL     1     147.615 165.237 166.609  0.00  0.00    +0.000 A 
ATOM      5  N2  UNL     1     147.544 166.509 166.179  0.00  0.00    +0.000 NA
ATOM      6  C13 UNL     1     146.431 167.059 165.662  0.00  0.00    +0.000 A 
ATOM      7  C14 UNL     1     145.304 166.268 165.572  0.00  0.00    +0.000 A 
ATOM      8  C15 UNL     1     145.359 164.953 166.011  0.00  0.00    +0.000 A 
ATOM      9  C16 UNL     1     146.515 164.414 166.537  0.00  0.00    +0.000 A 
ATOM     10  C17 UNL     1     146.558 163.105 166.971  0.00  0.00    +0.000 A 
ENDROOT
BRANCH   1  12
ATOM     11  C1  UNL     1     149.117 160.698 168.197  0.00  0.00    +0.000 C 
ATOM     12  O1  UNL     1     147.832 161.279 167.947  0.00  0.00    +0.000 OA
ENDBRANCH   1  12
BRANCH   3  13
ATOM     13  N1  UNL     1     149.945 165.551 167.210  0.00  0.00    +0.000 N 
ATOM     14  H5  UNL     1     149.961 166.259 168.000  0.00  0.00    +0.000 HD
BRANCH  13  15
ATOM     15  S1  UNL     1     151.256 165.476 166.115  0.00  0.00    +0.000 S 
ATOM     16  O2  UNL     1     152.352 166.406 166.582  0.00  0.00    +0.000 OA
ATOM     17  O3  UNL     1     150.867 165.828 164.707  0.00  0.00    +0.000 OA
BRANCH  15  18
ATOM     18  C5  UNL     1     151.938 163.873 166.087  0.00  0.00    +0.000 A 
ATOM     19  C6  UNL     1     151.970 163.175 164.873  0.00  0.00    +0.000 A 
ATOM     20  C7  UNL     1     152.479 161.909 164.744  0.00  0.00    +0.000 A 
ATOM     21  C8  UNL     1     152.982 161.300 165.873  0.00  0.00    +0.000 A 
ATOM     22  C9  UNL     1     153.540 159.939 165.789  0.00  0.00    +0.000 C 
ATOM     23  C10 UNL     1     152.962 161.971 167.090  0.00  0.00    +0.000 A 
ATOM     24  C11 UNL     1     152.445 163.246 167.197  0.00  0.00    +0.000 A 
ENDBRANCH  15  18
ENDBRANCH  13  15
ENDBRANCH   3  13
TORSDOF 4
ENDMDL
MODEL 8
REMARK VINA RESULT:      -5.4      3.816      5.508
REMARK  Name = ./3D_structures\o20_MMV098836_3D.pdb
REMARK  6 active torsions:
REMARK  status: ('A' for Active; 'I' for Inactive)
REMARK    1  A    between atoms: C1_1  and  O1_2
REMARK    2  A    between atoms: O1_2  and  C2_3
REMARK    3  A    between atoms: C4_5  and  N1_6
REMARK    4  A    between atoms: N1_6  and  S1_7
REMARK    5  A    between atoms: S1_7  and  C5_10
REMARK    6  A    between atoms: C8_13  and  C9_14
REMARK                            x       y       z     vdW  Elec       q    Type
REMARK                         _______ _______ _______ _____ _____    ______ ____
ROOT
ATOM      1  C2  UNL     1     156.746 156.795 166.933  0.00  0.00    +0.000 A 
ATOM      2  C3  UNL     1     157.982 157.400 166.912  0.00  0.00    +0.000 A 
ATOM      3  C4  UNL     1     158.512 158.053 168.009  0.00  0.00    +0.000 A 
ATOM      4  C12 UNL     1     157.765 158.104 169.192  0.00  0.00    +0.000 A 
ATOM      5  N2  UNL     1     158.235 158.727 170.287  0.00  0.00    +0.000 NA
ATOM      6  C13 UNL     1     157.559 158.806 171.447  0.00  0.00    +0.000 A 
ATOM      7  C14 UNL     1     156.315 158.212 171.509  0.00  0.00    +0.000 A 
ATOM      8  C15 UNL     1     155.814 157.565 170.388  0.00  0.00    +0.000 A 
ATOM      9  C16 UNL     1     156.530 157.500 169.210  0.00  0.00    +0.000 A 
ATOM     10  C17 UNL     1     156.021 156.853 168.102  0.00  0.00    +0.000 A 
ENDROOT
BRANCH   1  12
ATOM     11  C1  UNL     1     157.223 155.696 164.798  0.00  0.00    +0.000 C 
ATOM     12  O1  UNL     1     156.299 156.166 165.787  0.00  0.00    +0.000 OA
ENDBRANCH   1  12
BRANCH   3  13
ATOM     13  N1  UNL     1     159.784 158.681 167.975  0.00  0.00    +0.000 N 
ATOM     14  H5  UNL     1     160.188 158.972 168.912  0.00  0.00    +0.000 HD
BRANCH  13  15
ATOM     15  S1  UNL     1     160.666 158.982 166.542  0.00  0.00    +0.000 S 
ATOM     16  O2  UNL     1     161.684 160.068 166.800  0.00  0.00    +0.000 OA
ATOM     17  O3  UNL     1     159.792 159.379 165.386  0.00  0.00    +0.000 OA
BRANCH  15  18
ATOM     18  C5  UNL     1     161.558 157.564 166.064  0.00  0.00    +0.000 A 
ATOM     19  C6  UNL     1     162.764 157.274 166.714  0.00  0.00    +0.000 A 
ATOM     20  C7  UNL     1     163.543 156.187 166.410  0.00  0.00    +0.000 A 
ATOM     21  C8  UNL     1     163.108 155.344 165.412  0.00  0.00    +0.000 A 
ATOM     22  C9  UNL     1     163.908 154.162 165.046  0.00  0.00    +0.000 C 
ATOM     23  C10 UNL     1     161.914 155.609 164.751  0.00  0.00    +0.000 A 
ATOM     24  C11 UNL     1     161.145 156.708 165.073  0.00  0.00    +0.000 A 
ENDBRANCH  15  18
ENDBRANCH  13  15
ENDBRANCH   3  13
TORSDOF 4
ENDMDL
MODEL 9
REMARK VINA RESULT:      -5.4      3.354      6.853
REMARK  Name = ./3D_structures\o20_MMV098836_3D.pdb
REMARK  6 active torsions:
REMARK  status: ('A' for Active; 'I' for Inactive)
REMARK    1  A    between atoms: C1_1  and  O1_2
REMARK    2  A    between atoms: O1_2  and  C2_3
REMARK    3  A    between atoms: C4_5  and  N1_6
REMARK    4  A    between atoms: N1_6  and  S1_7
REMARK    5  A    between atoms: S1_7  and  C5_10
REMARK    6  A    between atoms: C8_13  and  C9_14
REMARK                            x       y       z     vdW  Elec       q    Type
REMARK                         _______ _______ _______ _____ _____    ______ ____
ROOT
ATOM      1  C2  UNL     1     155.046 160.026 172.538  0.00  0.00    +0.000 A 
ATOM      2  C3  UNL     1     154.474 160.609 171.430  0.00  0.00    +0.000 A 
ATOM      3  C4  UNL     1     155.026 160.510 170.166  0.00  0.00    +0.000 A 
ATOM      4  C12 UNL     1     156.215 159.789 170.001  0.00  0.00    +0.000 A 
ATOM      5  N2  UNL     1     156.792 159.662 168.793  0.00  0.00    +0.000 NA
ATOM      6  C13 UNL     1     157.932 158.982 168.580  0.00  0.00    +0.000 A 
ATOM      7  C14 UNL     1     158.537 158.383 169.666  0.00  0.00    +0.000 A 
ATOM      8  C15 UNL     1     157.955 158.503 170.920  0.00  0.00    +0.000 A 
ATOM      9  C16 UNL     1     156.784 159.208 171.110  0.00  0.00    +0.000 A 
ATOM     10  C17 UNL     1     156.216 159.319 172.362  0.00  0.00    +0.000 A 
ENDROOT
BRANCH   1  12
ATOM     11  C1  UNL     1     153.015 160.430 173.842  0.00  0.00    +0.000 C 
ATOM     12  O1  UNL     1     154.423 160.178 173.761  0.00  0.00    +0.000 OA
ENDBRANCH   1  12
BRANCH   3  13
ATOM     13  N1  UNL     1     154.434 161.121 169.031  0.00  0.00    +0.000 N 
ATOM     14  H5  UNL     1     154.751 162.110 168.812  0.00  0.00    +0.000 HD
BRANCH  13  15
ATOM     15  S1  UNL     1     153.269 160.366 168.034  0.00  0.00    +0.000 S 
ATOM     16  O2  UNL     1     153.964 159.437 167.067  0.00  0.00    +0.000 OA
ATOM     17  O3  UNL     1     152.427 161.346 167.268  0.00  0.00    +0.000 OA
BRANCH  15  18
ATOM     18  C5  UNL     1     152.193 159.382 168.988  0.00  0.00    +0.000 A 
ATOM     19  C6  UNL     1     152.613 158.103 169.375  0.00  0.00    +0.000 A 
ATOM     20  C7  UNL     1     151.842 157.249 170.121  0.00  0.00    +0.000 A 
ATOM     21  C8  UNL     1     150.591 157.681 170.503  0.00  0.00    +0.000 A 
ATOM     22  C9  UNL     1     149.722 156.802 171.305  0.00  0.00    +0.000 C 
ATOM     23  C10 UNL     1     150.150 158.947 170.132  0.00  0.00    +0.000 A 
ATOM     24  C11 UNL     1     150.943 159.790 169.382  0.00  0.00    +0.000 A 
ENDBRANCH  15  18
ENDBRANCH  13  15
ENDBRANCH   3  13
TORSDOF 4
ENDMDL
