MODEL 1
REMARK VINA RESULT:      -7.1      0.000      0.000
REMARK  Name = ./3D_structures\o25_MMV1634396_3D.pdb
REMARK  5 active torsions:
REMARK  status: ('A' for Active; 'I' for Inactive)
REMARK    1  A    between atoms: C2_3  and  C12_18
REMARK    2  A    between atoms: C5_8  and  C6_9
REMARK    3  A    between atoms: C10_13  and  C11_14
REMARK    4  A    between atoms: N4_24  and  C15_25
REMARK    5  A    between atoms: C18_28  and  O3_29
REMARK                            x       y       z     vdW  Elec       q    Type
REMARK                         _______ _______ _______ _____ _____    ______ ____
ROOT
ATOM      1 CL1  UNL     1     159.137 142.927 165.131  0.00  0.00    +0.000 Cl
ATOM      2  C1  UNL     1     160.379 142.338 166.212  0.00  0.00    +0.000 A 
ATOM      3  C2  UNL     1     161.266 141.320 165.897  0.00  0.00    +0.000 A 
ATOM      4  N1  UNL     1     162.041 141.175 166.978  0.00  0.00    +0.000 NA
ATOM      5  C3  UNL     1     161.655 142.066 167.928  0.00  0.00    +0.000 A 
ATOM      6  N2  UNL     1     160.624 142.799 167.476  0.00  0.00    +0.000 N 
ATOM      7  C4  UNL     1     160.029 143.769 168.211  0.00  0.00    +0.000 A 
ATOM      8  C5  UNL     1     160.480 144.040 169.484  0.00  0.00    +0.000 A 
ATOM      9  C9  UNL     1     161.539 143.299 169.973  0.00  0.00    +0.000 A 
ATOM     10  C10 UNL     1     162.127 142.318 169.205  0.00  0.00    +0.000 A 
ENDROOT
BRANCH   3  11
ATOM     11  C12 UNL     1     161.322 140.572 164.633  0.00  0.00    +0.000 C 
ATOM     12  O1  UNL     1     160.355 139.833 164.285  0.00  0.00    +0.000 OA
ATOM     13  N3  UNL     1     162.464 140.682 163.807  0.00  0.00    +0.000 N 
ATOM     14  C13 UNL     1     163.566 141.520 164.183  0.00  0.00    +0.000 C 
ATOM     15  C14 UNL     1     164.686 141.444 163.252  0.00  0.00    +0.000 C 
ATOM     16  O2  UNL     1     165.639 142.293 163.249  0.00  0.00    +0.000 OA
ATOM     17  N4  UNL     1     164.777 140.415 162.291  0.00  0.00    +0.000 N 
ATOM     18  C21 UNL     1     163.858 139.276 162.431  0.00  0.00    +0.000 C 
ATOM     19  C22 UNL     1     162.486 139.914 162.574  0.00  0.00    +0.000 C 
BRANCH  17  20
ATOM     20  C15 UNL     1     165.691 140.409 161.208  0.00  0.00    +0.000 C 
ATOM     21  C16 UNL     1     166.934 139.591 161.586  0.00  0.00    +0.000 C 
ATOM     22  C17 UNL     1     168.050 140.156 160.737  0.00  0.00    +0.000 C 
ATOM     23  C18 UNL     1     167.568 140.642 159.403  0.00  0.00    +0.000 C 
ATOM     24  C19 UNL     1     166.333 139.986 158.899  0.00  0.00    +0.000 C 
ATOM     25  C20 UNL     1     165.208 139.875 159.903  0.00  0.00    +0.000 C 
BRANCH  23  26
ATOM     26  O3  UNL     1     167.513 142.053 159.326  0.00  0.00    +0.000 OA
ATOM     27  H16 UNL     1     166.706 142.387 159.785  0.00  0.00    +0.000 HD
ENDBRANCH  23  26
ENDBRANCH  17  20
ENDBRANCH   3  11
BRANCH  10  28
ATOM     28  C11 UNL     1     163.266 141.497 169.691  0.00  0.00    +0.000 C 
ATOM     29  F1  UNL     1     163.038 140.153 169.624  0.00  0.00    +0.000 F 
ATOM     30  F2  UNL     1     163.461 141.844 171.023  0.00  0.00    +0.000 F 
ATOM     31  F3  UNL     1     164.422 141.870 169.012  0.00  0.00    +0.000 F 
ENDBRANCH  10  28
BRANCH   8  32
ATOM     32  C6  UNL     1     159.845 145.101 170.314  0.00  0.00    +0.000 C 
ATOM     33  C7  UNL     1     160.451 145.481 171.617  0.00  0.00    +0.000 C 
ATOM     34  C8  UNL     1     160.626 146.396 170.428  0.00  0.00    +0.000 C 
ENDBRANCH   8  32
TORSDOF 5
ENDMDL
MODEL 2
REMARK VINA RESULT:      -7.0     20.786     25.277
REMARK  Name = ./3D_structures\o25_MMV1634396_3D.pdb
REMARK  5 active torsions:
REMARK  status: ('A' for Active; 'I' for Inactive)
REMARK    1  A    between atoms: C2_3  and  C12_18
REMARK    2  A    between atoms: C5_8  and  C6_9
REMARK    3  A    between atoms: C10_13  and  C11_14
REMARK    4  A    between atoms: N4_24  and  C15_25
REMARK    5  A    between atoms: C18_28  and  O3_29
REMARK                            x       y       z     vdW  Elec       q    Type
REMARK                         _______ _______ _______ _____ _____    ______ ____
ROOT
ATOM      1 CL1  UNL     1     152.635 162.583 167.772  0.00  0.00    +0.000 Cl
ATOM      2  C1  UNL     1     151.786 161.390 168.728  0.00  0.00    +0.000 A 
ATOM      3  C2  UNL     1     150.574 161.619 169.360  0.00  0.00    +0.000 A 
ATOM      4  N1  UNL     1     150.270 160.470 169.976  0.00  0.00    +0.000 NA
ATOM      5  C3  UNL     1     151.250 159.562 169.736  0.00  0.00    +0.000 A 
ATOM      6  N2  UNL     1     152.203 160.110 168.964  0.00  0.00    +0.000 N 
ATOM      7  C4  UNL     1     153.308 159.435 168.564  0.00  0.00    +0.000 A 
ATOM      8  C5  UNL     1     153.491 158.125 168.950  0.00  0.00    +0.000 A 
ATOM      9  C9  UNL     1     152.525 157.538 169.746  0.00  0.00    +0.000 A 
ATOM     10  C10 UNL     1     151.410 158.246 170.139  0.00  0.00    +0.000 A 
ENDROOT
BRANCH   3  11
ATOM     11  C12 UNL     1     149.804 162.871 169.344  0.00  0.00    +0.000 C 
ATOM     12  O1  UNL     1     150.228 163.889 169.966  0.00  0.00    +0.000 OA
ATOM     13  N3  UNL     1     148.586 162.932 168.630  0.00  0.00    +0.000 N 
ATOM     14  C13 UNL     1     148.094 161.790 167.914  0.00  0.00    +0.000 C 
ATOM     15  C14 UNL     1     146.786 162.013 167.308  0.00  0.00    +0.000 C 
ATOM     16  O2  UNL     1     146.297 161.239 166.420  0.00  0.00    +0.000 OA
ATOM     17  N4  UNL     1     145.982 163.112 167.676  0.00  0.00    +0.000 N 
ATOM     18  C21 UNL     1     146.378 163.869 168.873  0.00  0.00    +0.000 C 
ATOM     19  C22 UNL     1     147.848 164.183 168.651  0.00  0.00    +0.000 C 
BRANCH  17  20
ATOM     20  C15 UNL     1     144.826 163.530 166.971  0.00  0.00    +0.000 C 
ATOM     21  C16 UNL     1     143.577 163.261 167.822  0.00  0.00    +0.000 C 
ATOM     22  C17 UNL     1     142.450 163.099 166.827  0.00  0.00    +0.000 C 
ATOM     23  C18 UNL     1     142.636 163.946 165.604  0.00  0.00    +0.000 C 
ATOM     24  C19 UNL     1     143.459 165.169 165.801  0.00  0.00    +0.000 C 
ATOM     25  C20 UNL     1     144.756 164.957 166.548  0.00  0.00    +0.000 C 
BRANCH  23  26
ATOM     26  O3  UNL     1     143.031 163.192 164.475  0.00  0.00    +0.000 OA
ATOM     27  H16 UNL     1     142.275 163.097 163.849  0.00  0.00    +0.000 HD
ENDBRANCH  23  26
ENDBRANCH  17  20
ENDBRANCH   3  11
BRANCH  10  28
ATOM     28  C11 UNL     1     150.348 157.656 170.995  0.00  0.00    +0.000 C 
ATOM     29  F1  UNL     1     150.270 158.221 172.235  0.00  0.00    +0.000 F 
ATOM     30  F2  UNL     1     150.666 156.311 171.144  0.00  0.00    +0.000 F 
ATOM     31  F3  UNL     1     149.135 157.702 170.316  0.00  0.00    +0.000 F 
ENDBRANCH  10  28
BRANCH   8  32
ATOM     32  C6  UNL     1     154.695 157.360 168.525  0.00  0.00    +0.000 C 
ATOM     33  C7  UNL     1     156.005 158.050 168.403  0.00  0.00    +0.000 C 
ATOM     34  C8  UNL     1     155.751 157.156 169.594  0.00  0.00    +0.000 C 
ENDBRANCH   8  32
TORSDOF 5
ENDMDL
MODEL 3
REMARK VINA RESULT:      -7.0     18.648     23.368
REMARK  Name = ./3D_structures\o25_MMV1634396_3D.pdb
REMARK  5 active torsions:
REMARK  status: ('A' for Active; 'I' for Inactive)
REMARK    1  A    between atoms: C2_3  and  C12_18
REMARK    2  A    between atoms: C5_8  and  C6_9
REMARK    3  A    between atoms: C10_13  and  C11_14
REMARK    4  A    between atoms: N4_24  and  C15_25
REMARK    5  A    between atoms: C18_28  and  O3_29
REMARK                            x       y       z     vdW  Elec       q    Type
REMARK                         _______ _______ _______ _____ _____    ______ ____
ROOT
ATOM      1 CL1  UNL     1     154.158 160.707 165.303  0.00  0.00    +0.000 Cl
ATOM      2  C1  UNL     1     154.796 160.535 166.923  0.00  0.00    +0.000 A 
ATOM      3  C2  UNL     1     154.544 161.424 167.956  0.00  0.00    +0.000 A 
ATOM      4  N1  UNL     1     155.206 160.939 169.013  0.00  0.00    +0.000 NA
ATOM      5  C3  UNL     1     155.844 159.795 168.655  0.00  0.00    +0.000 A 
ATOM      6  N2  UNL     1     155.604 159.524 167.361  0.00  0.00    +0.000 N 
ATOM      7  C4  UNL     1     156.114 158.441 166.727  0.00  0.00    +0.000 A 
ATOM      8  C5  UNL     1     156.918 157.557 167.414  0.00  0.00    +0.000 A 
ATOM      9  C9  UNL     1     157.180 157.815 168.747  0.00  0.00    +0.000 A 
ATOM     10  C10 UNL     1     156.649 158.924 169.369  0.00  0.00    +0.000 A 
ENDROOT
BRANCH   3  11
ATOM     11  C12 UNL     1     153.719 162.638 167.881  0.00  0.00    +0.000 C 
ATOM     12  O1  UNL     1     154.258 163.764 167.662  0.00  0.00    +0.000 OA
ATOM     13  N3  UNL     1     152.320 162.544 168.055  0.00  0.00    +0.000 N 
ATOM     14  C13 UNL     1     151.692 161.276 168.297  0.00  0.00    +0.000 C 
ATOM     15  C14 UNL     1     150.257 161.384 168.533  0.00  0.00    +0.000 C 
ATOM     16  O2  UNL     1     149.476 160.375 168.502  0.00  0.00    +0.000 OA
ATOM     17  N4  UNL     1     149.647 162.625 168.812  0.00  0.00    +0.000 N 
ATOM     18  C21 UNL     1     150.531 163.758 169.123  0.00  0.00    +0.000 C 
ATOM     19  C22 UNL     1     151.543 163.769 167.989  0.00  0.00    +0.000 C 
BRANCH  17  20
ATOM     20  C15 UNL     1     148.248 162.848 168.812  0.00  0.00    +0.000 C 
ATOM     21  C16 UNL     1     147.915 164.039 169.721  0.00  0.00    +0.000 C 
ATOM     22  C17 UNL     1     146.494 163.800 170.177  0.00  0.00    +0.000 C 
ATOM     23  C18 UNL     1     145.666 163.100 169.141  0.00  0.00    +0.000 C 
ATOM     24  C19 UNL     1     146.112 163.298 167.737  0.00  0.00    +0.000 C 
ATOM     25  C20 UNL     1     147.594 163.115 167.500  0.00  0.00    +0.000 C 
BRANCH  23  26
ATOM     26  O3  UNL     1     145.433 161.742 169.459  0.00  0.00    +0.000 OA
ATOM     27  H16 UNL     1     144.803 161.675 170.215  0.00  0.00    +0.000 HD
ENDBRANCH  23  26
ENDBRANCH  17  20
ENDBRANCH   3  11
BRANCH  10  28
ATOM     28  C11 UNL     1     156.906 159.240 170.798  0.00  0.00    +0.000 C 
ATOM     29  F1  UNL     1     157.464 160.470 170.993  0.00  0.00    +0.000 F 
ATOM     30  F2  UNL     1     157.795 158.276 171.259  0.00  0.00    +0.000 F 
ATOM     31  F3  UNL     1     155.731 159.072 171.522  0.00  0.00    +0.000 F 
ENDBRANCH  10  28
BRANCH   8  32
ATOM     32  C6  UNL     1     157.491 156.358 166.743  0.00  0.00    +0.000 C 
ATOM     33  C7  UNL     1     157.201 156.104 165.309  0.00  0.00    +0.000 C 
ATOM     34  C8  UNL     1     158.557 156.639 165.702  0.00  0.00    +0.000 C 
ENDBRANCH   8  32
TORSDOF 5
ENDMDL
MODEL 4
REMARK VINA RESULT:      -6.8     20.717     25.068
REMARK  Name = ./3D_structures\o25_MMV1634396_3D.pdb
REMARK  5 active torsions:
REMARK  status: ('A' for Active; 'I' for Inactive)
REMARK    1  A    between atoms: C2_3  and  C12_18
REMARK    2  A    between atoms: C5_8  and  C6_9
REMARK    3  A    between atoms: C10_13  and  C11_14
REMARK    4  A    between atoms: N4_24  and  C15_25
REMARK    5  A    between atoms: C18_28  and  O3_29
REMARK                            x       y       z     vdW  Elec       q    Type
REMARK                         _______ _______ _______ _____ _____    ______ ____
ROOT
ATOM      1 CL1  UNL     1     153.550 164.019 169.899  0.00  0.00    +0.000 Cl
ATOM      2  C1  UNL     1     153.678 162.783 168.668  0.00  0.00    +0.000 A 
ATOM      3  C2  UNL     1     153.235 162.935 167.363  0.00  0.00    +0.000 A 
ATOM      4  N1  UNL     1     153.514 161.777 166.754  0.00  0.00    +0.000 NA
ATOM      5  C3  UNL     1     154.109 160.938 167.640  0.00  0.00    +0.000 A 
ATOM      6  N2  UNL     1     154.222 161.540 168.835  0.00  0.00    +0.000 N 
ATOM      7  C4  UNL     1     154.777 160.939 169.916  0.00  0.00    +0.000 A 
ATOM      8  C5  UNL     1     155.259 159.652 169.814  0.00  0.00    +0.000 A 
ATOM      9  C9  UNL     1     155.154 159.010 168.594  0.00  0.00    +0.000 A 
ATOM     10  C10 UNL     1     154.585 159.644 167.511  0.00  0.00    +0.000 A 
ENDROOT
BRANCH   3  11
ATOM     11  C12 UNL     1     152.593 164.129 166.794  0.00  0.00    +0.000 C 
ATOM     12  O1  UNL     1     153.298 165.089 166.364  0.00  0.00    +0.000 OA
ATOM     13  N3  UNL     1     151.183 164.200 166.729  0.00  0.00    +0.000 N 
ATOM     14  C13 UNL     1     150.369 163.119 167.204  0.00  0.00    +0.000 C 
ATOM     15  C14 UNL     1     148.940 163.403 167.133  0.00  0.00    +0.000 C 
ATOM     16  O2  UNL     1     148.050 162.497 167.250  0.00  0.00    +0.000 OA
ATOM     17  N4  UNL     1     148.459 164.714 166.929  0.00  0.00    +0.000 N 
ATOM     18  C21 UNL     1     149.424 165.816 167.059  0.00  0.00    +0.000 C 
ATOM     19  C22 UNL     1     150.589 165.404 166.173  0.00  0.00    +0.000 C 
BRANCH  17  20
ATOM     20  C15 UNL     1     147.117 165.034 166.609  0.00  0.00    +0.000 C 
ATOM     21  C16 UNL     1     146.259 164.995 167.881  0.00  0.00    +0.000 C 
ATOM     22  C17 UNL     1     144.859 164.687 167.403  0.00  0.00    +0.000 C 
ATOM     23  C18 UNL     1     144.573 165.265 166.049  0.00  0.00    +0.000 C 
ATOM     24  C19 UNL     1     145.375 166.464 165.691  0.00  0.00    +0.000 C 
ATOM     25  C20 UNL     1     146.859 166.349 165.959  0.00  0.00    +0.000 C 
BRANCH  23  26
ATOM     26  O3  UNL     1     144.564 164.283 165.031  0.00  0.00    +0.000 OA
ATOM     27  H16 UNL     1     143.673 164.238 164.611  0.00  0.00    +0.000 HD
ENDBRANCH  23  26
ENDBRANCH  17  20
ENDBRANCH   3  11
BRANCH  10  28
ATOM     28  C11 UNL     1     154.451 158.992 166.182  0.00  0.00    +0.000 C 
ATOM     29  F1  UNL     1     153.203 159.106 165.641  0.00  0.00    +0.000 F 
ATOM     30  F2  UNL     1     154.723 157.643 166.377  0.00  0.00    +0.000 F 
ATOM     31  F3  UNL     1     155.441 159.476 165.332  0.00  0.00    +0.000 F 
ENDBRANCH  10  28
BRANCH   8  32
ATOM     32  C6  UNL     1     155.875 158.967 170.984  0.00  0.00    +0.000 C 
ATOM     33  C7  UNL     1     156.349 157.565 170.855  0.00  0.00    +0.000 C 
ATOM     34  C8  UNL     1     157.361 158.687 170.868  0.00  0.00    +0.000 C 
ENDBRANCH   8  32
TORSDOF 5
ENDMDL
MODEL 5
REMARK VINA RESULT:      -6.8     21.663     25.363
REMARK  Name = ./3D_structures\o25_MMV1634396_3D.pdb
REMARK  5 active torsions:
REMARK  status: ('A' for Active; 'I' for Inactive)
REMARK    1  A    between atoms: C2_3  and  C12_18
REMARK    2  A    between atoms: C5_8  and  C6_9
REMARK    3  A    between atoms: C10_13  and  C11_14
REMARK    4  A    between atoms: N4_24  and  C15_25
REMARK    5  A    between atoms: C18_28  and  O3_29
REMARK                            x       y       z     vdW  Elec       q    Type
REMARK                         _______ _______ _______ _____ _____    ______ ____
ROOT
ATOM      1 CL1  UNL     1     151.480 165.708 165.314  0.00  0.00    +0.000 Cl
ATOM      2  C1  UNL     1     150.531 165.360 166.742  0.00  0.00    +0.000 A 
ATOM      3  C2  UNL     1     151.065 164.917 167.942  0.00  0.00    +0.000 A 
ATOM      4  N1  UNL     1     150.020 164.772 168.765  0.00  0.00    +0.000 NA
ATOM      5  C3  UNL     1     148.882 165.112 168.107  0.00  0.00    +0.000 A 
ATOM      6  N2  UNL     1     149.174 165.481 166.849  0.00  0.00    +0.000 N 
ATOM      7  C4  UNL     1     148.232 165.872 165.957  0.00  0.00    +0.000 A 
ATOM      8  C5  UNL     1     146.905 165.904 166.328  0.00  0.00    +0.000 A 
ATOM      9  C9  UNL     1     146.579 165.529 167.618  0.00  0.00    +0.000 A 
ATOM     10  C10 UNL     1     147.556 165.136 168.506  0.00  0.00    +0.000 A 
ENDROOT
BRANCH   3  11
ATOM     11  C12 UNL     1     152.486 164.666 168.225  0.00  0.00    +0.000 C 
ATOM     12  O1  UNL     1     153.288 165.634 168.374  0.00  0.00    +0.000 OA
ATOM     13  N3  UNL     1     152.952 163.336 168.328  0.00  0.00    +0.000 N 
ATOM     14  C13 UNL     1     152.056 162.227 168.167  0.00  0.00    +0.000 C 
ATOM     15  C14 UNL     1     152.729 160.934 168.224  0.00  0.00    +0.000 C 
ATOM     16  O2  UNL     1     152.098 159.835 168.372  0.00  0.00    +0.000 OA
ATOM     17  N4  UNL     1     154.132 160.828 168.118  0.00  0.00    +0.000 N 
ATOM     18  C21 UNL     1     154.869 162.023 167.681  0.00  0.00    +0.000 C 
ATOM     19  C22 UNL     1     154.366 163.131 168.593  0.00  0.00    +0.000 C 
BRANCH  17  20
ATOM     20  C15 UNL     1     154.870 159.654 168.404  0.00  0.00    +0.000 C 
ATOM     21  C16 UNL     1     155.238 158.943 167.094  0.00  0.00    +0.000 C 
ATOM     22  C17 UNL     1     155.398 157.487 167.467  0.00  0.00    +0.000 C 
ATOM     23  C18 UNL     1     155.924 157.303 168.859  0.00  0.00    +0.000 C 
ATOM     24  C19 UNL     1     156.735 158.434 169.383  0.00  0.00    +0.000 C 
ATOM     25  C20 UNL     1     156.134 159.806 169.178  0.00  0.00    +0.000 C 
BRANCH  23  26
ATOM     26  O3  UNL     1     154.925 156.876 169.764  0.00  0.00    +0.000 OA
ATOM     27  H16 UNL     1     154.793 157.553 170.469  0.00  0.00    +0.000 HD
ENDBRANCH  23  26
ENDBRANCH  17  20
ENDBRANCH   3  11
BRANCH  10  28
ATOM     28  C11 UNL     1     147.251 164.723 169.901  0.00  0.00    +0.000 C 
ATOM     29  F1  UNL     1     147.616 163.438 170.182  0.00  0.00    +0.000 F 
ATOM     30  F2  UNL     1     145.873 164.831 170.049  0.00  0.00    +0.000 F 
ATOM     31  F3  UNL     1     147.817 165.637 170.783  0.00  0.00    +0.000 F 
ENDBRANCH  10  28
BRANCH   8  32
ATOM     32  C6  UNL     1     145.849 166.330 165.369  0.00  0.00    +0.000 C 
ATOM     33  C7  UNL     1     144.421 166.292 165.777  0.00  0.00    +0.000 C 
ATOM     34  C8  UNL     1     145.135 167.622 165.716  0.00  0.00    +0.000 C 
ENDBRANCH   8  32
TORSDOF 5
ENDMDL
MODEL 6
REMARK VINA RESULT:      -6.7     12.060     14.538
REMARK  Name = ./3D_structures\o25_MMV1634396_3D.pdb
REMARK  5 active torsions:
REMARK  status: ('A' for Active; 'I' for Inactive)
REMARK    1  A    between atoms: C2_3  and  C12_18
REMARK    2  A    between atoms: C5_8  and  C6_9
REMARK    3  A    between atoms: C10_13  and  C11_14
REMARK    4  A    between atoms: N4_24  and  C15_25
REMARK    5  A    between atoms: C18_28  and  O3_29
REMARK                            x       y       z     vdW  Elec       q    Type
REMARK                         _______ _______ _______ _____ _____    ______ ____
ROOT
ATOM      1 CL1  UNL     1     155.961 156.660 165.474  0.00  0.00    +0.000 Cl
ATOM      2  C1  UNL     1     157.686 156.927 165.592  0.00  0.00    +0.000 A 
ATOM      3  C2  UNL     1     158.606 156.499 164.647  0.00  0.00    +0.000 A 
ATOM      4  N1  UNL     1     159.799 156.896 165.106  0.00  0.00    +0.000 NA
ATOM      5  C3  UNL     1     159.631 157.545 166.286  0.00  0.00    +0.000 A 
ATOM      6  N2  UNL     1     158.327 157.577 166.610  0.00  0.00    +0.000 N 
ATOM      7  C4  UNL     1     157.860 158.161 167.740  0.00  0.00    +0.000 A 
ATOM      8  C5  UNL     1     158.739 158.759 168.617  0.00  0.00    +0.000 A 
ATOM      9  C9  UNL     1     160.086 158.739 168.307  0.00  0.00    +0.000 A 
ATOM     10  C10 UNL     1     160.535 158.139 167.151  0.00  0.00    +0.000 A 
ENDROOT
BRANCH   3  11
ATOM     11  C12 UNL     1     158.307 155.765 163.410  0.00  0.00    +0.000 C 
ATOM     12  O1  UNL     1     158.044 156.393 162.342  0.00  0.00    +0.000 OA
ATOM     13  N3  UNL     1     158.315 154.351 163.417  0.00  0.00    +0.000 N 
ATOM     14  C13 UNL     1     158.618 153.623 164.616  0.00  0.00    +0.000 C 
ATOM     15  C14 UNL     1     158.497 152.179 164.454  0.00  0.00    +0.000 C 
ATOM     16  O2  UNL     1     158.972 151.349 165.299  0.00  0.00    +0.000 OA
ATOM     17  N4  UNL     1     157.841 151.614 163.341  0.00  0.00    +0.000 N 
ATOM     18  C21 UNL     1     157.051 152.519 162.491  0.00  0.00    +0.000 C 
ATOM     19  C22 UNL     1     157.999 153.664 162.177  0.00  0.00    +0.000 C 
BRANCH  17  20
ATOM     20  C15 UNL     1     157.893 150.243 162.991  0.00  0.00    +0.000 C 
ATOM     21  C16 UNL     1     156.657 149.521 163.546  0.00  0.00    +0.000 C 
ATOM     22  C17 UNL     1     157.086 148.082 163.720  0.00  0.00    +0.000 C 
ATOM     23  C18 UNL     1     158.090 147.652 162.692  0.00  0.00    +0.000 C 
ATOM     24  C19 UNL     1     158.039 148.400 161.408  0.00  0.00    +0.000 C 
ATOM     25  C20 UNL     1     157.971 149.904 161.542  0.00  0.00    +0.000 C 
BRANCH  23  26
ATOM     26  O3  UNL     1     159.398 147.550 163.220  0.00  0.00    +0.000 OA
ATOM     27  H16 UNL     1     159.810 146.699 162.941  0.00  0.00    +0.000 HD
ENDBRANCH  23  26
ENDBRANCH  17  20
ENDBRANCH   3  11
BRANCH  10  28
ATOM     28  C11 UNL     1     161.973 158.093 166.780  0.00  0.00    +0.000 C 
ATOM     29  F1  UNL     1     162.518 156.845 166.860  0.00  0.00    +0.000 F 
ATOM     30  F2  UNL     1     162.637 158.921 167.677  0.00  0.00    +0.000 F 
ATOM     31  F3  UNL     1     162.139 158.661 165.521  0.00  0.00    +0.000 F 
ENDBRANCH  10  28
BRANCH   8  32
ATOM     32  C6  UNL     1     158.254 159.409 169.866  0.00  0.00    +0.000 C 
ATOM     33  C7  UNL     1     156.820 159.311 170.241  0.00  0.00    +0.000 C 
ATOM     34  C8  UNL     1     157.833 158.463 170.974  0.00  0.00    +0.000 C 
ENDBRANCH   8  32
TORSDOF 5
ENDMDL
MODEL 7
REMARK VINA RESULT:      -6.7     20.094     24.625
REMARK  Name = ./3D_structures\o25_MMV1634396_3D.pdb
REMARK  5 active torsions:
REMARK  status: ('A' for Active; 'I' for Inactive)
REMARK    1  A    between atoms: C2_3  and  C12_18
REMARK    2  A    between atoms: C5_8  and  C6_9
REMARK    3  A    between atoms: C10_13  and  C11_14
REMARK    4  A    between atoms: N4_24  and  C15_25
REMARK    5  A    between atoms: C18_28  and  O3_29
REMARK                            x       y       z     vdW  Elec       q    Type
REMARK                         _______ _______ _______ _____ _____    ______ ____
ROOT
ATOM      1 CL1  UNL     1     154.268 162.357 167.173  0.00  0.00    +0.000 Cl
ATOM      2  C1  UNL     1     154.100 162.019 168.881  0.00  0.00    +0.000 A 
ATOM      3  C2  UNL     1     153.304 162.755 169.745  0.00  0.00    +0.000 A 
ATOM      4  N1  UNL     1     153.452 162.180 170.944  0.00  0.00    +0.000 NA
ATOM      5  C3  UNL     1     154.303 161.127 170.832  0.00  0.00    +0.000 A 
ATOM      6  N2  UNL     1     154.719 161.008 169.561  0.00  0.00    +0.000 N 
ATOM      7  C4  UNL     1     155.578 160.043 169.152  0.00  0.00    +0.000 A 
ATOM      8  C5  UNL     1     156.065 159.127 170.060  0.00  0.00    +0.000 A 
ATOM      9  C9  UNL     1     155.652 159.229 171.375  0.00  0.00    +0.000 A 
ATOM     10  C10 UNL     1     154.777 160.219 171.765  0.00  0.00    +0.000 A 
ENDROOT
BRANCH   3  11
ATOM     11  C12 UNL     1     152.481 163.921 169.393  0.00  0.00    +0.000 C 
ATOM     12  O1  UNL     1     152.890 165.092 169.648  0.00  0.00    +0.000 OA
ATOM     13  N3  UNL     1     151.228 163.728 168.769  0.00  0.00    +0.000 N 
ATOM     14  C13 UNL     1     150.751 162.409 168.467  0.00  0.00    +0.000 C 
ATOM     15  C14 UNL     1     149.407 162.401 167.901  0.00  0.00    +0.000 C 
ATOM     16  O2  UNL     1     148.909 161.378 167.323  0.00  0.00    +0.000 OA
ATOM     17  N4  UNL     1     148.575 163.538 167.964  0.00  0.00    +0.000 N 
ATOM     18  C21 UNL     1     148.995 164.636 168.846  0.00  0.00    +0.000 C 
ATOM     19  C22 UNL     1     150.438 164.905 168.452  0.00  0.00    +0.000 C 
BRANCH  17  20
ATOM     20  C15 UNL     1     147.369 163.689 167.236  0.00  0.00    +0.000 C 
ATOM     21  C16 UNL     1     146.197 163.876 168.210  0.00  0.00    +0.000 C 
ATOM     22  C17 UNL     1     144.981 163.377 167.463  0.00  0.00    +0.000 C 
ATOM     23  C18 UNL     1     145.072 163.620 165.987  0.00  0.00    +0.000 C 
ATOM     24  C19 UNL     1     145.937 164.761 165.586  0.00  0.00    +0.000 C 
ATOM     25  C20 UNL     1     147.292 164.808 166.255  0.00  0.00    +0.000 C 
BRANCH  23  26
ATOM     26  O3  UNL     1     145.345 162.439 165.258  0.00  0.00    +0.000 OA
ATOM     27  H16 UNL     1     146.224 162.076 165.518  0.00  0.00    +0.000 HD
ENDBRANCH  23  26
ENDBRANCH  17  20
ENDBRANCH   3  11
BRANCH  10  28
ATOM     28  C11 UNL     1     154.309 160.367 173.167  0.00  0.00    +0.000 C 
ATOM     29  F1  UNL     1     154.501 161.618 173.678  0.00  0.00    +0.000 F 
ATOM     30  F2  UNL     1     155.047 159.465 173.925  0.00  0.00    +0.000 F 
ATOM     31  F3  UNL     1     152.981 159.961 173.252  0.00  0.00    +0.000 F 
ENDBRANCH  10  28
BRANCH   8  32
ATOM     32  C6  UNL     1     157.009 158.056 169.639  0.00  0.00    +0.000 C 
ATOM     33  C7  UNL     1     157.932 158.290 168.499  0.00  0.00    +0.000 C 
ATOM     34  C8  UNL     1     158.475 158.336 169.907  0.00  0.00    +0.000 C 
ENDBRANCH   8  32
TORSDOF 5
ENDMDL
MODEL 8
REMARK VINA RESULT:      -6.6     12.301     16.333
REMARK  Name = ./3D_structures\o25_MMV1634396_3D.pdb
REMARK  5 active torsions:
REMARK  status: ('A' for Active; 'I' for Inactive)
REMARK    1  A    between atoms: C2_3  and  C12_18
REMARK    2  A    between atoms: C5_8  and  C6_9
REMARK    3  A    between atoms: C10_13  and  C11_14
REMARK    4  A    between atoms: N4_24  and  C15_25
REMARK    5  A    between atoms: C18_28  and  O3_29
REMARK                            x       y       z     vdW  Elec       q    Type
REMARK                         _______ _______ _______ _____ _____    ______ ____
ROOT
ATOM      1 CL1  UNL     1     157.168 155.325 162.133  0.00  0.00    +0.000 Cl
ATOM      2  C1  UNL     1     157.900 154.039 163.064  0.00  0.00    +0.000 A 
ATOM      3  C2  UNL     1     158.961 154.217 163.937  0.00  0.00    +0.000 A 
ATOM      4  N1  UNL     1     159.217 153.004 164.441  0.00  0.00    +0.000 NA
ATOM      5  C3  UNL     1     158.351 152.106 163.905  0.00  0.00    +0.000 A 
ATOM      6  N2  UNL     1     157.523 152.725 163.047  0.00  0.00    +0.000 N 
ATOM      7  C4  UNL     1     156.551 152.076 162.361  0.00  0.00    +0.000 A 
ATOM      8  C5  UNL     1     156.378 150.720 162.531  0.00  0.00    +0.000 A 
ATOM      9  C9  UNL     1     157.218 150.059 163.408  0.00  0.00    +0.000 A 
ATOM     10  C10 UNL     1     158.199 150.742 164.094  0.00  0.00    +0.000 A 
ENDROOT
BRANCH   3  11
ATOM     11  C12 UNL     1     159.646 155.484 164.231  0.00  0.00    +0.000 C 
ATOM     12  O1  UNL     1     160.684 155.814 163.584  0.00  0.00    +0.000 OA
ATOM     13  N3  UNL     1     159.140 156.334 165.240  0.00  0.00    +0.000 N 
ATOM     14  C13 UNL     1     157.961 155.979 165.978  0.00  0.00    +0.000 C 
ATOM     15  C14 UNL     1     157.637 156.934 167.031  0.00  0.00    +0.000 C 
ATOM     16  O2  UNL     1     156.504 156.955 167.618  0.00  0.00    +0.000 OA
ATOM     17  N4  UNL     1     158.570 157.899 167.464  0.00  0.00    +0.000 N 
ATOM     18  C21 UNL     1     159.962 157.743 167.015  0.00  0.00    +0.000 C 
ATOM     19  C22 UNL     1     159.855 157.569 165.509  0.00  0.00    +0.000 C 
BRANCH  17  20
ATOM     20  C15 UNL     1     158.256 159.001 168.297  0.00  0.00    +0.000 C 
ATOM     21  C16 UNL     1     158.621 158.671 169.751  0.00  0.00    +0.000 C 
ATOM     22  C17 UNL     1     157.703 159.529 170.592  0.00  0.00    +0.000 C 
ATOM     23  C18 UNL     1     157.382 160.840 169.939  0.00  0.00    +0.000 C 
ATOM     24  C19 UNL     1     158.402 161.334 168.976  0.00  0.00    +0.000 C 
ATOM     25  C20 UNL     1     158.897 160.309 167.981  0.00  0.00    +0.000 C 
BRANCH  23  26
ATOM     26  O3  UNL     1     156.068 160.879 169.418  0.00  0.00    +0.000 OA
ATOM     27  H16 UNL     1     155.564 161.624 169.824  0.00  0.00    +0.000 HD
ENDBRANCH  23  26
ENDBRANCH  17  20
ENDBRANCH   3  11
BRANCH  10  28
ATOM     28  C11 UNL     1     159.124 150.073 165.045  0.00  0.00    +0.000 C 
ATOM     29  F1  UNL     1     160.439 150.185 164.697  0.00  0.00    +0.000 F 
ATOM     30  F2  UNL     1     158.782 148.726 165.043  0.00  0.00    +0.000 F 
ATOM     31  F3  UNL     1     158.877 150.541 166.331  0.00  0.00    +0.000 F 
ENDBRANCH  10  28
BRANCH   8  32
ATOM     32  C6  UNL     1     155.318 149.981 161.791  0.00  0.00    +0.000 C 
ATOM     33  C7  UNL     1     154.828 150.500 160.488  0.00  0.00    +0.000 C 
ATOM     34  C8  UNL     1     155.764 149.315 160.503  0.00  0.00    +0.000 C 
ENDBRANCH   8  32
TORSDOF 5
ENDMDL
MODEL 9
REMARK VINA RESULT:      -6.5     18.093     22.515
REMARK  Name = ./3D_structures\o25_MMV1634396_3D.pdb
REMARK  5 active torsions:
REMARK  status: ('A' for Active; 'I' for Inactive)
REMARK    1  A    between atoms: C2_3  and  C12_18
REMARK    2  A    between atoms: C5_8  and  C6_9
REMARK    3  A    between atoms: C10_13  and  C11_14
REMARK    4  A    between atoms: N4_24  and  C15_25
REMARK    5  A    between atoms: C18_28  and  O3_29
REMARK                            x       y       z     vdW  Elec       q    Type
REMARK                         _______ _______ _______ _____ _____    ______ ____
ROOT
ATOM      1 CL1  UNL     1     154.883 159.709 171.254  0.00  0.00    +0.000 Cl
ATOM      2  C1  UNL     1     154.961 158.959 169.676  0.00  0.00    +0.000 A 
ATOM      3  C2  UNL     1     153.851 158.552 168.952  0.00  0.00    +0.000 A 
ATOM      4  N1  UNL     1     154.335 158.036 167.816  0.00  0.00    +0.000 NA
ATOM      5  C3  UNL     1     155.691 158.119 167.830  0.00  0.00    +0.000 A 
ATOM      6  N2  UNL     1     156.103 158.688 168.975  0.00  0.00    +0.000 N 
ATOM      7  C4  UNL     1     157.409 158.899 169.266  0.00  0.00    +0.000 A 
ATOM      8  C5  UNL     1     158.383 158.524 168.367  0.00  0.00    +0.000 A 
ATOM      9  C9  UNL     1     157.985 157.935 167.181  0.00  0.00    +0.000 A 
ATOM     10  C10 UNL     1     156.650 157.732 166.908  0.00  0.00    +0.000 A 
ENDROOT
BRANCH   3  11
ATOM     11  C12 UNL     1     152.446 158.673 169.368  0.00  0.00    +0.000 C 
ATOM     12  O1  UNL     1     151.875 157.718 169.973  0.00  0.00    +0.000 OA
ATOM     13  N3  UNL     1     151.735 159.861 169.087  0.00  0.00    +0.000 N 
ATOM     14  C13 UNL     1     152.368 160.955 168.407  0.00  0.00    +0.000 C 
ATOM     15  C14 UNL     1     151.458 162.061 168.131  0.00  0.00    +0.000 C 
ATOM     16  O2  UNL     1     151.866 163.219 167.785  0.00  0.00    +0.000 OA
ATOM     17  N4  UNL     1     150.059 161.908 168.235  0.00  0.00    +0.000 N 
ATOM     18  C21 UNL     1     149.537 160.540 168.364  0.00  0.00    +0.000 C 
ATOM     19  C22 UNL     1     150.344 159.934 169.500  0.00  0.00    +0.000 C 
BRANCH  17  20
ATOM     20  C15 UNL     1     149.133 162.980 168.222  0.00  0.00    +0.000 C 
ATOM     21  C16 UNL     1     147.801 162.504 167.624  0.00  0.00    +0.000 C 
ATOM     22  C17 UNL     1     147.160 163.749 167.053  0.00  0.00    +0.000 C 
ATOM     23  C18 UNL     1     147.494 164.981 167.839  0.00  0.00    +0.000 C 
ATOM     24  C19 UNL     1     147.829 164.748 169.268  0.00  0.00    +0.000 C 
ATOM     25  C20 UNL     1     148.810 163.627 169.525  0.00  0.00    +0.000 C 
BRANCH  23  26
ATOM     26  O3  UNL     1     148.434 165.807 167.180  0.00  0.00    +0.000 OA
ATOM     27  H16 UNL     1     148.032 166.197 166.368  0.00  0.00    +0.000 HD
ENDBRANCH  23  26
ENDBRANCH  17  20
ENDBRANCH   3  11
BRANCH  10  28
ATOM     28  C11 UNL     1     156.177 157.102 165.649  0.00  0.00    +0.000 C 
ATOM     29  F1  UNL     1     154.849 157.301 165.403  0.00  0.00    +0.000 F 
ATOM     30  F2  UNL     1     156.398 155.737 165.786  0.00  0.00    +0.000 F 
ATOM     31  F3  UNL     1     156.978 157.528 164.594  0.00  0.00    +0.000 F 
ENDBRANCH  10  28
BRANCH   8  32
ATOM     32  C6  UNL     1     159.826 158.745 168.660  0.00  0.00    +0.000 C 
ATOM     33  C7  UNL     1     160.842 158.485 167.608  0.00  0.00    +0.000 C 
ATOM     34  C8  UNL     1     160.469 159.911 167.935  0.00  0.00    +0.000 C 
ENDBRANCH   8  32
TORSDOF 5
ENDMDL
