MODEL 1
REMARK VINA RESULT:      -6.5      0.000      0.000
REMARK  Name = ./3D_structures\o27_MMV1633968_3D.pdb
REMARK  4 active torsions:
REMARK  status: ('A' for Active; 'I' for Inactive)
REMARK    1  A    between atoms: C1_2  and  C2_5
REMARK    2  A    between atoms: C5_8  and  N1_9
REMARK    3  A    between atoms: C8_15  and  C11_20
REMARK    4  A    between atoms: C9_17  and  N6_19
REMARK                            x       y       z     vdW  Elec       q    Type
REMARK                         _______ _______ _______ _____ _____    ______ ____
ROOT
ATOM      1  N1  UNL     1     151.310 160.312 168.609  0.00  0.00    +0.000 N 
ATOM      2  C6  UNL     1     151.197 161.662 168.202  0.00  0.00    +0.000 A 
ATOM      3  N2  UNL     1     152.143 162.614 168.164  0.00  0.00    +0.000 NA
ATOM      4  N3  UNL     1     151.614 163.762 167.779  0.00  0.00    +0.000 N 
ATOM      5  C7  UNL     1     150.288 163.595 167.548  0.00  0.00    +0.000 A 
ATOM      6  N4  UNL     1     149.314 164.438 167.141  0.00  0.00    +0.000 NA
ATOM      7  C8  UNL     1     148.062 163.997 166.985  0.00  0.00    +0.000 C 
ATOM      8  N5  UNL     1     147.811 162.709 167.245  0.00  0.00    +0.000 NA
ATOM      9  C9  UNL     1     148.716 161.806 167.652  0.00  0.00    +0.000 C 
ATOM     10  C10 UNL     1     150.024 162.265 167.816  0.00  0.00    +0.000 A 
ATOM     11  H3  UNL     1     150.485 159.675 168.685  0.00  0.00    +0.000 HD
ATOM     12  H4  UNL     1     152.145 164.642 167.674  0.00  0.00    +0.000 HD
ENDROOT
BRANCH   1  16
ATOM     13  C2  UNL     1     154.980 158.485 169.565  0.00  0.00    +0.000 A 
ATOM     14  C3  UNL     1     154.203 159.078 170.546  0.00  0.00    +0.000 A 
ATOM     15  C4  UNL     1     153.023 159.681 170.238  0.00  0.00    +0.000 A 
ATOM     16  C5  UNL     1     152.562 159.724 168.949  0.00  0.00    +0.000 A 
ATOM     17  C17 UNL     1     153.348 159.126 167.963  0.00  0.00    +0.000 A 
ATOM     18  C18 UNL     1     154.530 158.517 168.244  0.00  0.00    +0.000 A 
BRANCH  13  20
ATOM     19  F1  UNL     1     156.244 156.496 169.383  0.00  0.00    +0.000 F 
ATOM     20  C1  UNL     1     156.286 157.812 169.858  0.00  0.00    +0.000 C 
ATOM     21  F2  UNL     1     156.482 157.733 171.223  0.00  0.00    +0.000 F 
ATOM     22  F3  UNL     1     157.336 158.447 169.238  0.00  0.00    +0.000 F 
ENDBRANCH  13  20
ENDBRANCH   1  16
BRANCH   7  23
ATOM     23  C11 UNL     1     146.974 164.849 166.538  0.00  0.00    +0.000 A 
ATOM     24  C12 UNL     1     145.673 164.419 166.501  0.00  0.00    +0.000 A 
ATOM     25  C13 UNL     1     144.603 165.212 166.072  0.00  0.00    +0.000 A 
ATOM     26  C14 UNL     1     144.871 166.503 165.661  0.00  0.00    +0.000 A 
ATOM     27  C15 UNL     1     146.160 166.952 165.691  0.00  0.00    +0.000 A 
ATOM     28  C16 UNL     1     147.217 166.162 166.117  0.00  0.00    +0.000 A 
ENDBRANCH   7  23
BRANCH   9  29
ATOM     29  N6  UNL     1     148.405 160.446 167.892  0.00  0.00    +0.000 N 
ATOM     30  H5  UNL     1     149.046 159.855 168.427  0.00  0.00    +0.000 HD
ATOM     31  H6  UNL     1     147.526 160.053 167.520  0.00  0.00    +0.000 HD
ENDBRANCH   9  29
TORSDOF 4
ENDMDL
MODEL 2
REMARK VINA RESULT:      -6.4     20.793     24.162
REMARK  Name = ./3D_structures\o27_MMV1633968_3D.pdb
REMARK  4 active torsions:
REMARK  status: ('A' for Active; 'I' for Inactive)
REMARK    1  A    between atoms: C1_2  and  C2_5
REMARK    2  A    between atoms: C5_8  and  N1_9
REMARK    3  A    between atoms: C8_15  and  C11_20
REMARK    4  A    between atoms: C9_17  and  N6_19
REMARK                            x       y       z     vdW  Elec       q    Type
REMARK                         _______ _______ _______ _____ _____    ______ ____
ROOT
ATOM      1  N1  UNL     1     161.248 141.742 166.839  0.00  0.00    +0.000 N 
ATOM      2  C6  UNL     1     162.116 142.109 165.786  0.00  0.00    +0.000 A 
ATOM      3  N2  UNL     1     162.858 143.222 165.652  0.00  0.00    +0.000 NA
ATOM      4  N3  UNL     1     163.487 143.209 164.491  0.00  0.00    +0.000 N 
ATOM      5  C7  UNL     1     163.175 142.073 163.819  0.00  0.00    +0.000 A 
ATOM      6  N4  UNL     1     163.551 141.586 162.616  0.00  0.00    +0.000 NA
ATOM      7  C8  UNL     1     163.086 140.407 162.191  0.00  0.00    +0.000 C 
ATOM      8  N5  UNL     1     162.247 139.736 162.989  0.00  0.00    +0.000 NA
ATOM      9  C9  UNL     1     161.825 140.145 164.195  0.00  0.00    +0.000 C 
ATOM     10  C10 UNL     1     162.308 141.376 164.639  0.00  0.00    +0.000 A 
ATOM     11  H3  UNL     1     160.646 140.889 166.801  0.00  0.00    +0.000 HD
ATOM     12  H4  UNL     1     164.117 143.959 164.162  0.00  0.00    +0.000 HD
ENDROOT
BRANCH   1  16
ATOM     13  C2  UNL     1     160.894 144.114 170.298  0.00  0.00    +0.000 A 
ATOM     14  C3  UNL     1     161.852 143.117 170.213  0.00  0.00    +0.000 A 
ATOM     15  C4  UNL     1     161.959 142.340 169.101  0.00  0.00    +0.000 A 
ATOM     16  C5  UNL     1     161.127 142.515 168.029  0.00  0.00    +0.000 A 
ATOM     17  C17 UNL     1     160.162 143.520 168.119  0.00  0.00    +0.000 A 
ATOM     18  C18 UNL     1     160.033 144.310 169.217  0.00  0.00    +0.000 A 
BRANCH  13  20
ATOM     19  F1  UNL     1     161.672 146.032 171.440  0.00  0.00    +0.000 F 
ATOM     20  C1  UNL     1     160.738 144.991 171.503  0.00  0.00    +0.000 C 
ATOM     21  F2  UNL     1     161.021 144.276 172.649  0.00  0.00    +0.000 F 
ATOM     22  F3  UNL     1     159.486 145.556 171.562  0.00  0.00    +0.000 F 
ENDBRANCH  13  20
ENDBRANCH   1  16
BRANCH   7  23
ATOM     23  C11 UNL     1     163.461 139.824 160.915  0.00  0.00    +0.000 A 
ATOM     24  C12 UNL     1     162.791 140.109 159.754  0.00  0.00    +0.000 A 
ATOM     25  C13 UNL     1     163.123 139.561 158.510  0.00  0.00    +0.000 A 
ATOM     26  C14 UNL     1     164.187 138.682 158.445  0.00  0.00    +0.000 A 
ATOM     27  C15 UNL     1     164.868 138.386 159.591  0.00  0.00    +0.000 A 
ATOM     28  C16 UNL     1     164.535 138.931 160.821  0.00  0.00    +0.000 A 
ENDBRANCH   7  23
BRANCH   9  29
ATOM     29  N6  UNL     1     160.953 139.386 165.012  0.00  0.00    +0.000 N 
ATOM     30  H5  UNL     1     160.753 139.684 165.971  0.00  0.00    +0.000 HD
ATOM     31  H6  UNL     1     160.523 138.528 164.635  0.00  0.00    +0.000 HD
ENDBRANCH   9  29
TORSDOF 4
ENDMDL
MODEL 3
REMARK VINA RESULT:      -6.3      8.688     10.278
REMARK  Name = ./3D_structures\o27_MMV1633968_3D.pdb
REMARK  4 active torsions:
REMARK  status: ('A' for Active; 'I' for Inactive)
REMARK    1  A    between atoms: C1_2  and  C2_5
REMARK    2  A    between atoms: C5_8  and  N1_9
REMARK    3  A    between atoms: C8_15  and  C11_20
REMARK    4  A    between atoms: C9_17  and  N6_19
REMARK                            x       y       z     vdW  Elec       q    Type
REMARK                         _______ _______ _______ _____ _____    ______ ____
ROOT
ATOM      1  N1  UNL     1     158.463 156.742 166.186  0.00  0.00    +0.000 N 
ATOM      2  C6  UNL     1     157.347 157.040 167.001  0.00  0.00    +0.000 A 
ATOM      3  N2  UNL     1     156.062 156.686 166.834  0.00  0.00    +0.000 NA
ATOM      4  N3  UNL     1     155.319 157.218 167.787  0.00  0.00    +0.000 N 
ATOM      5  C7  UNL     1     156.103 157.946 168.621  0.00  0.00    +0.000 A 
ATOM      6  N4  UNL     1     155.840 158.670 169.730  0.00  0.00    +0.000 NA
ATOM      7  C8  UNL     1     156.828 159.296 170.378  0.00  0.00    +0.000 C 
ATOM      8  N5  UNL     1     158.069 159.183 169.892  0.00  0.00    +0.000 NA
ATOM      9  C9  UNL     1     158.418 158.487 168.800  0.00  0.00    +0.000 C 
ATOM     10  C10 UNL     1     157.388 157.833 168.123  0.00  0.00    +0.000 A 
ATOM     11  H3  UNL     1     159.412 157.145 166.360  0.00  0.00    +0.000 HD
ATOM     12  H4  UNL     1     154.297 157.088 167.870  0.00  0.00    +0.000 HD
ENDROOT
BRANCH   1  16
ATOM     13  C2  UNL     1     158.294 154.129 162.891  0.00  0.00    +0.000 A 
ATOM     14  C3  UNL     1     158.075 155.488 162.734  0.00  0.00    +0.000 A 
ATOM     15  C4  UNL     1     158.115 156.332 163.800  0.00  0.00    +0.000 A 
ATOM     16  C5  UNL     1     158.374 155.872 165.063  0.00  0.00    +0.000 A 
ATOM     17  C17 UNL     1     158.594 154.502 165.217  0.00  0.00    +0.000 A 
ATOM     18  C18 UNL     1     158.559 153.636 164.170  0.00  0.00    +0.000 A 
BRANCH  13  20
ATOM     19  F1  UNL     1     158.571 153.836 160.562  0.00  0.00    +0.000 F 
ATOM     20  C1  UNL     1     158.256 153.162 161.748  0.00  0.00    +0.000 C 
ATOM     21  F2  UNL     1     156.978 152.663 161.591  0.00  0.00    +0.000 F 
ATOM     22  F3  UNL     1     159.172 152.148 161.908  0.00  0.00    +0.000 F 
ENDBRANCH  13  20
ENDBRANCH   1  16
BRANCH   7  23
ATOM     23  C11 UNL     1     156.612 160.078 171.582  0.00  0.00    +0.000 A 
ATOM     24  C12 UNL     1     157.143 161.331 171.748  0.00  0.00    +0.000 A 
ATOM     25  C13 UNL     1     156.957 162.108 172.897  0.00  0.00    +0.000 A 
ATOM     26  C14 UNL     1     156.197 161.586 173.924  0.00  0.00    +0.000 A 
ATOM     27  C15 UNL     1     155.659 160.339 173.779  0.00  0.00    +0.000 A 
ATOM     28  C16 UNL     1     155.845 159.573 172.639  0.00  0.00    +0.000 A 
ENDBRANCH   7  23
BRANCH   9  29
ATOM     29  N6  UNL     1     159.753 158.379 168.339  0.00  0.00    +0.000 N 
ATOM     30  H5  UNL     1     160.141 157.466 168.087  0.00  0.00    +0.000 HD
ATOM     31  H6  UNL     1     160.333 159.228 168.262  0.00  0.00    +0.000 HD
ENDBRANCH   9  29
TORSDOF 4
ENDMDL
MODEL 4
REMARK VINA RESULT:      -6.3      0.962      2.226
REMARK  Name = ./3D_structures\o27_MMV1633968_3D.pdb
REMARK  4 active torsions:
REMARK  status: ('A' for Active; 'I' for Inactive)
REMARK    1  A    between atoms: C1_2  and  C2_5
REMARK    2  A    between atoms: C5_8  and  N1_9
REMARK    3  A    between atoms: C8_15  and  C11_20
REMARK    4  A    between atoms: C9_17  and  N6_19
REMARK                            x       y       z     vdW  Elec       q    Type
REMARK                         _______ _______ _______ _____ _____    ______ ____
ROOT
ATOM      1  N1  UNL     1     152.864 161.778 168.744  0.00  0.00    +0.000 N 
ATOM      2  C6  UNL     1     151.472 161.590 168.581  0.00  0.00    +0.000 A 
ATOM      3  N2  UNL     1     150.737 160.489 168.806  0.00  0.00    +0.000 NA
ATOM      4  N3  UNL     1     149.479 160.709 168.471  0.00  0.00    +0.000 N 
ATOM      5  C7  UNL     1     149.346 161.978 168.011  0.00  0.00    +0.000 A 
ATOM      6  N4  UNL     1     148.289 162.684 167.558  0.00  0.00    +0.000 NA
ATOM      7  C8  UNL     1     148.443 163.953 167.164  0.00  0.00    +0.000 C 
ATOM      8  N5  UNL     1     149.667 164.489 167.235  0.00  0.00    +0.000 NA
ATOM      9  C9  UNL     1     150.769 163.861 167.671  0.00  0.00    +0.000 C 
ATOM     10  C10 UNL     1     150.609 162.536 168.082  0.00  0.00    +0.000 A 
ATOM     11  H3  UNL     1     153.352 162.655 168.453  0.00  0.00    +0.000 HD
ATOM     12  H4  UNL     1     148.723 160.009 168.554  0.00  0.00    +0.000 HD
ENDROOT
BRANCH   1  16
ATOM     13  C2  UNL     1     155.402 158.905 170.481  0.00  0.00    +0.000 A 
ATOM     14  C3  UNL     1     155.152 158.903 169.119  0.00  0.00    +0.000 A 
ATOM     15  C4  UNL     1     154.321 159.823 168.557  0.00  0.00    +0.000 A 
ATOM     16  C5  UNL     1     153.704 160.780 169.315  0.00  0.00    +0.000 A 
ATOM     17  C17 UNL     1     153.958 160.779 170.688  0.00  0.00    +0.000 A 
ATOM     18  C18 UNL     1     154.783 159.872 171.275  0.00  0.00    +0.000 A 
BRANCH  13  20
ATOM     19  F1  UNL     1     157.598 158.038 170.615  0.00  0.00    +0.000 F 
ATOM     20  C1  UNL     1     156.307 157.912 171.143  0.00  0.00    +0.000 C 
ATOM     21  F2  UNL     1     155.888 156.627 170.858  0.00  0.00    +0.000 F 
ATOM     22  F3  UNL     1     156.388 158.121 172.499  0.00  0.00    +0.000 F 
ENDBRANCH  13  20
ENDBRANCH   1  16
BRANCH   7  23
ATOM     23  C11 UNL     1     147.344 164.769 166.680  0.00  0.00    +0.000 A 
ATOM     24  C12 UNL     1     146.051 164.315 166.652  0.00  0.00    +0.000 A 
ATOM     25  C13 UNL     1     144.970 165.073 166.188  0.00  0.00    +0.000 A 
ATOM     26  C14 UNL     1     145.218 166.352 165.730  0.00  0.00    +0.000 A 
ATOM     27  C15 UNL     1     146.499 166.824 165.749  0.00  0.00    +0.000 A 
ATOM     28  C16 UNL     1     147.567 166.068 166.210  0.00  0.00    +0.000 A 
ENDBRANCH   7  23
BRANCH   9  29
ATOM     29  N6  UNL     1     152.039 164.481 167.748  0.00  0.00    +0.000 N 
ATOM     30  H5  UNL     1     152.127 165.496 167.651  0.00  0.00    +0.000 HD
ATOM     31  H6  UNL     1     152.878 163.900 167.899  0.00  0.00    +0.000 HD
ENDBRANCH   9  29
TORSDOF 4
ENDMDL
MODEL 5
REMARK VINA RESULT:      -6.3      6.129      9.014
REMARK  Name = ./3D_structures\o27_MMV1633968_3D.pdb
REMARK  4 active torsions:
REMARK  status: ('A' for Active; 'I' for Inactive)
REMARK    1  A    between atoms: C1_2  and  C2_5
REMARK    2  A    between atoms: C5_8  and  N1_9
REMARK    3  A    between atoms: C8_15  and  C11_20
REMARK    4  A    between atoms: C9_17  and  N6_19
REMARK                            x       y       z     vdW  Elec       q    Type
REMARK                         _______ _______ _______ _____ _____    ______ ____
ROOT
ATOM      1  N1  UNL     1     159.508 158.808 167.269  0.00  0.00    +0.000 N 
ATOM      2  C6  UNL     1     158.693 158.665 168.415  0.00  0.00    +0.000 A 
ATOM      3  N2  UNL     1     159.055 158.394 169.680  0.00  0.00    +0.000 NA
ATOM      4  N3  UNL     1     157.983 158.284 170.443  0.00  0.00    +0.000 N 
ATOM      5  C7  UNL     1     156.870 158.483 169.694  0.00  0.00    +0.000 A 
ATOM      6  N4  UNL     1     155.553 158.483 169.991  0.00  0.00    +0.000 NA
ATOM      7  C8  UNL     1     154.646 158.722 169.037  0.00  0.00    +0.000 C 
ATOM      8  N5  UNL     1     155.087 158.957 167.796  0.00  0.00    +0.000 NA
ATOM      9  C9  UNL     1     156.373 158.975 167.416  0.00  0.00    +0.000 C 
ATOM     10  C10 UNL     1     157.320 158.726 168.410  0.00  0.00    +0.000 A 
ATOM     11  H3  UNL     1     159.114 158.932 166.309  0.00  0.00    +0.000 HD
ATOM     12  H4  UNL     1     158.008 158.077 171.455  0.00  0.00    +0.000 HD
ENDROOT
BRANCH   1  16
ATOM     13  C2  UNL     1     163.705 158.683 167.561  0.00  0.00    +0.000 A 
ATOM     14  C3  UNL     1     163.028 159.892 167.544  0.00  0.00    +0.000 A 
ATOM     15  C4  UNL     1     161.672 159.935 167.436  0.00  0.00    +0.000 A 
ATOM     16  C5  UNL     1     160.930 158.789 167.340  0.00  0.00    +0.000 A 
ATOM     17  C17 UNL     1     161.616 157.573 167.357  0.00  0.00    +0.000 A 
ATOM     18  C18 UNL     1     162.969 157.501 167.464  0.00  0.00    +0.000 A 
BRANCH  13  20
ATOM     19  F1  UNL     1     165.767 159.814 167.317  0.00  0.00    +0.000 F 
ATOM     20  C1  UNL     1     165.196 158.587 167.676  0.00  0.00    +0.000 C 
ATOM     21  F2  UNL     1     165.680 157.651 166.783  0.00  0.00    +0.000 F 
ATOM     22  F3  UNL     1     165.590 158.302 168.962  0.00  0.00    +0.000 F 
ENDBRANCH  13  20
ENDBRANCH   1  16
BRANCH   7  23
ATOM     23  C11 UNL     1     153.218 158.749 169.294  0.00  0.00    +0.000 A 
ATOM     24  C12 UNL     1     152.555 157.692 169.863  0.00  0.00    +0.000 A 
ATOM     25  C13 UNL     1     151.180 157.684 170.120  0.00  0.00    +0.000 A 
ATOM     26  C14 UNL     1     150.444 158.803 169.781  0.00  0.00    +0.000 A 
ATOM     27  C15 UNL     1     151.086 159.867 169.213  0.00  0.00    +0.000 A 
ATOM     28  C16 UNL     1     152.449 159.870 168.960  0.00  0.00    +0.000 A 
ENDBRANCH   7  23
BRANCH   9  29
ATOM     29  N6  UNL     1     156.790 159.252 166.091  0.00  0.00    +0.000 N 
ATOM     30  H5  UNL     1     157.378 160.066 165.893  0.00  0.00    +0.000 HD
ATOM     31  H6  UNL     1     156.492 158.628 165.325  0.00  0.00    +0.000 HD
ENDBRANCH   9  29
TORSDOF 4
ENDMDL
MODEL 6
REMARK VINA RESULT:      -6.2      4.924      9.596
REMARK  Name = ./3D_structures\o27_MMV1633968_3D.pdb
REMARK  4 active torsions:
REMARK  status: ('A' for Active; 'I' for Inactive)
REMARK    1  A    between atoms: C1_2  and  C2_5
REMARK    2  A    between atoms: C5_8  and  N1_9
REMARK    3  A    between atoms: C8_15  and  C11_20
REMARK    4  A    between atoms: C9_17  and  N6_19
REMARK                            x       y       z     vdW  Elec       q    Type
REMARK                         _______ _______ _______ _____ _____    ______ ____
ROOT
ATOM      1  N1  UNL     1     150.645 161.874 167.081  0.00  0.00    +0.000 N 
ATOM      2  C6  UNL     1     151.425 160.935 167.794  0.00  0.00    +0.000 A 
ATOM      3  N2  UNL     1     151.307 160.535 169.071  0.00  0.00    +0.000 NA
ATOM      4  N3  UNL     1     152.273 159.687 169.370  0.00  0.00    +0.000 N 
ATOM      5  C7  UNL     1     153.066 159.500 168.285  0.00  0.00    +0.000 A 
ATOM      6  N4  UNL     1     154.162 158.742 168.069  0.00  0.00    +0.000 NA
ATOM      7  C8  UNL     1     154.756 158.740 166.871  0.00  0.00    +0.000 C 
ATOM      8  N5  UNL     1     154.232 159.507 165.908  0.00  0.00    +0.000 NA
ATOM      9  C9  UNL     1     153.149 160.287 166.036  0.00  0.00    +0.000 C 
ATOM     10  C10 UNL     1     152.528 160.290 167.287  0.00  0.00    +0.000 A 
ATOM     11  H3  UNL     1     150.880 162.180 166.110  0.00  0.00    +0.000 HD
ATOM     12  H4  UNL     1     152.392 159.242 170.295  0.00  0.00    +0.000 HD
ENDROOT
BRANCH   1  16
ATOM     13  C2  UNL     1     147.258 163.669 168.819  0.00  0.00    +0.000 A 
ATOM     14  C3  UNL     1     147.185 162.402 168.263  0.00  0.00    +0.000 A 
ATOM     15  C4  UNL     1     148.276 161.826 167.688  0.00  0.00    +0.000 A 
ATOM     16  C5  UNL     1     149.480 162.474 167.639  0.00  0.00    +0.000 A 
ATOM     17  C17 UNL     1     149.549 163.750 168.200  0.00  0.00    +0.000 A 
ATOM     18  C18 UNL     1     148.475 164.350 168.780  0.00  0.00    +0.000 A 
BRANCH  13  20
ATOM     19  F1  UNL     1     146.098 164.089 170.836  0.00  0.00    +0.000 F 
ATOM     20  C1  UNL     1     146.083 164.344 169.460  0.00  0.00    +0.000 C 
ATOM     21  F2  UNL     1     144.907 163.810 168.972  0.00  0.00    +0.000 F 
ATOM     22  F3  UNL     1     146.123 165.707 169.286  0.00  0.00    +0.000 F 
ENDBRANCH  13  20
ENDBRANCH   1  16
BRANCH   7  23
ATOM     23  C11 UNL     1     155.930 157.939 166.572  0.00  0.00    +0.000 A 
ATOM     24  C12 UNL     1     155.909 156.925 165.650  0.00  0.00    +0.000 A 
ATOM     25  C13 UNL     1     157.019 156.131 165.342  0.00  0.00    +0.000 A 
ATOM     26  C14 UNL     1     158.206 156.381 166.004  0.00  0.00    +0.000 A 
ATOM     27  C15 UNL     1     158.248 157.388 166.926  0.00  0.00    +0.000 A 
ATOM     28  C16 UNL     1     157.144 158.171 167.228  0.00  0.00    +0.000 A 
ENDBRANCH   7  23
BRANCH   9  29
ATOM     29  N6  UNL     1     152.618 161.063 164.978  0.00  0.00    +0.000 N 
ATOM     30  H5  UNL     1     153.243 161.517 164.306  0.00  0.00    +0.000 HD
ATOM     31  H6  UNL     1     151.596 161.171 164.891  0.00  0.00    +0.000 HD
ENDBRANCH   9  29
TORSDOF 4
ENDMDL
MODEL 7
REMARK VINA RESULT:      -6.2      1.825      2.442
REMARK  Name = ./3D_structures\o27_MMV1633968_3D.pdb
REMARK  4 active torsions:
REMARK  status: ('A' for Active; 'I' for Inactive)
REMARK    1  A    between atoms: C1_2  and  C2_5
REMARK    2  A    between atoms: C5_8  and  N1_9
REMARK    3  A    between atoms: C8_15  and  C11_20
REMARK    4  A    between atoms: C9_17  and  N6_19
REMARK                            x       y       z     vdW  Elec       q    Type
REMARK                         _______ _______ _______ _____ _____    ______ ____
ROOT
ATOM      1  N1  UNL     1     150.927 161.329 169.721  0.00  0.00    +0.000 N 
ATOM      2  C6  UNL     1     150.462 162.661 169.625  0.00  0.00    +0.000 A 
ATOM      3  N2  UNL     1     150.906 163.757 170.262  0.00  0.00    +0.000 NA
ATOM      4  N3  UNL     1     150.161 164.799 169.940  0.00  0.00    +0.000 N 
ATOM      5  C7  UNL     1     149.193 164.415 169.071  0.00  0.00    +0.000 A 
ATOM      6  N4  UNL     1     148.200 165.085 168.448  0.00  0.00    +0.000 NA
ATOM      7  C8  UNL     1     147.373 164.444 167.616  0.00  0.00    +0.000 C 
ATOM      8  N5  UNL     1     147.562 163.134 167.425  0.00  0.00    +0.000 NA
ATOM      9  C9  UNL     1     148.521 162.393 168.001  0.00  0.00    +0.000 C 
ATOM     10  C10 UNL     1     149.385 163.061 168.871  0.00  0.00    +0.000 A 
ATOM     11  H3  UNL     1     150.449 160.530 169.246  0.00  0.00    +0.000 HD
ATOM     12  H4  UNL     1     150.308 165.755 170.305  0.00  0.00    +0.000 HD
ENDROOT
BRANCH   1  16
ATOM     13  C2  UNL     1     154.355 160.212 171.893  0.00  0.00    +0.000 A 
ATOM     14  C3  UNL     1     153.150 160.448 172.536  0.00  0.00    +0.000 A 
ATOM     15  C4  UNL     1     152.044 160.823 171.837  0.00  0.00    +0.000 A 
ATOM     16  C5  UNL     1     152.081 160.979 170.478  0.00  0.00    +0.000 A 
ATOM     17  C17 UNL     1     153.296 160.741 169.834  0.00  0.00    +0.000 A 
ATOM     18  C18 UNL     1     154.416 160.366 170.507  0.00  0.00    +0.000 A 
BRANCH  13  20
ATOM     19  F1  UNL     1     155.260 159.389 173.916  0.00  0.00    +0.000 F 
ATOM     20  C1  UNL     1     155.597 159.801 172.621  0.00  0.00    +0.000 C 
ATOM     21  F2  UNL     1     156.445 160.882 172.759  0.00  0.00    +0.000 F 
ATOM     22  F3  UNL     1     156.227 158.749 171.999  0.00  0.00    +0.000 F 
ENDBRANCH  13  20
ENDBRANCH   1  16
BRANCH   7  23
ATOM     23  C11 UNL     1     146.294 165.110 166.907  0.00  0.00    +0.000 A 
ATOM     24  C12 UNL     1     146.440 166.356 166.355  0.00  0.00    +0.000 A 
ATOM     25  C13 UNL     1     145.420 167.027 165.670  0.00  0.00    +0.000 A 
ATOM     26  C14 UNL     1     144.196 166.400 165.541  0.00  0.00    +0.000 A 
ATOM     27  C15 UNL     1     144.032 165.157 166.083  0.00  0.00    +0.000 A 
ATOM     28  C16 UNL     1     145.044 164.497 166.761  0.00  0.00    +0.000 A 
ENDBRANCH   7  23
BRANCH   9  29
ATOM     29  N6  UNL     1     148.694 161.011 167.749  0.00  0.00    +0.000 N 
ATOM     30  H5  UNL     1     148.066 160.519 167.107  0.00  0.00    +0.000 HD
ATOM     31  H6  UNL     1     149.457 160.501 168.220  0.00  0.00    +0.000 HD
ENDBRANCH   9  29
TORSDOF 4
ENDMDL
MODEL 8
REMARK VINA RESULT:      -6.2      5.049      9.571
REMARK  Name = ./3D_structures\o27_MMV1633968_3D.pdb
REMARK  4 active torsions:
REMARK  status: ('A' for Active; 'I' for Inactive)
REMARK    1  A    between atoms: C1_2  and  C2_5
REMARK    2  A    between atoms: C5_8  and  N1_9
REMARK    3  A    between atoms: C8_15  and  C11_20
REMARK    4  A    between atoms: C9_17  and  N6_19
REMARK                            x       y       z     vdW  Elec       q    Type
REMARK                         _______ _______ _______ _____ _____    ______ ____
ROOT
ATOM      1  N1  UNL     1     150.211 161.267 168.742  0.00  0.00    +0.000 N 
ATOM      2  C6  UNL     1     151.126 161.124 167.673  0.00  0.00    +0.000 A 
ATOM      3  N2  UNL     1     151.118 161.721 166.470  0.00  0.00    +0.000 NA
ATOM      4  N3  UNL     1     152.118 161.270 165.735  0.00  0.00    +0.000 N 
ATOM      5  C7  UNL     1     152.823 160.352 166.442  0.00  0.00    +0.000 A 
ATOM      6  N4  UNL     1     153.916 159.613 166.153  0.00  0.00    +0.000 NA
ATOM      7  C8  UNL     1     154.419 158.770 167.060  0.00  0.00    +0.000 C 
ATOM      8  N5  UNL     1     153.808 158.685 168.247  0.00  0.00    +0.000 NA
ATOM      9  C9  UNL     1     152.722 159.380 168.616  0.00  0.00    +0.000 C 
ATOM     10  C10 UNL     1     152.195 160.260 167.669  0.00  0.00    +0.000 A 
ATOM     11  H3  UNL     1     150.261 160.683 169.608  0.00  0.00    +0.000 HD
ATOM     12  H4  UNL     1     152.317 161.581 164.770  0.00  0.00    +0.000 HD
ENDROOT
BRANCH   1  16
ATOM     13  C2  UNL     1     147.077 164.069 168.549  0.00  0.00    +0.000 A 
ATOM     14  C3  UNL     1     148.210 164.320 169.305  0.00  0.00    +0.000 A 
ATOM     15  C4  UNL     1     149.219 163.409 169.380  0.00  0.00    +0.000 A 
ATOM     16  C5  UNL     1     149.150 162.216 168.712  0.00  0.00    +0.000 A 
ATOM     17  C17 UNL     1     148.006 161.967 167.952  0.00  0.00    +0.000 A 
ATOM     18  C18 UNL     1     146.984 162.859 167.860  0.00  0.00    +0.000 A 
BRANCH  13  20
ATOM     19  F1  UNL     1     146.184 165.918 167.377  0.00  0.00    +0.000 F 
ATOM     20  C1  UNL     1     145.941 165.041 168.440  0.00  0.00    +0.000 C 
ATOM     21  F2  UNL     1     145.869 165.815 169.582  0.00  0.00    +0.000 F 
ATOM     22  F3  UNL     1     144.749 164.404 168.192  0.00  0.00    +0.000 F 
ENDBRANCH  13  20
ENDBRANCH   1  16
BRANCH   7  23
ATOM     23  C11 UNL     1     155.598 157.958 166.816  0.00  0.00    +0.000 A 
ATOM     24  C12 UNL     1     155.710 157.138 165.724  0.00  0.00    +0.000 A 
ATOM     25  C13 UNL     1     156.830 156.341 165.461  0.00  0.00    +0.000 A 
ATOM     26  C14 UNL     1     157.884 156.379 166.353  0.00  0.00    +0.000 A 
ATOM     27  C15 UNL     1     157.792 157.191 167.447  0.00  0.00    +0.000 A 
ATOM     28  C16 UNL     1     156.681 157.979 167.703  0.00  0.00    +0.000 A 
ENDBRANCH   7  23
BRANCH   9  29
ATOM     29  N6  UNL     1     152.125 159.271 169.895  0.00  0.00    +0.000 N 
ATOM     30  H5  UNL     1     152.280 158.438 170.469  0.00  0.00    +0.000 HD
ATOM     31  H6  UNL     1     151.528 160.037 170.243  0.00  0.00    +0.000 HD
ENDBRANCH   9  29
TORSDOF 4
ENDMDL
MODEL 9
REMARK VINA RESULT:      -6.2      2.748      3.629
REMARK  Name = ./3D_structures\o27_MMV1633968_3D.pdb
REMARK  4 active torsions:
REMARK  status: ('A' for Active; 'I' for Inactive)
REMARK    1  A    between atoms: C1_2  and  C2_5
REMARK    2  A    between atoms: C5_8  and  N1_9
REMARK    3  A    between atoms: C8_15  and  C11_20
REMARK    4  A    between atoms: C9_17  and  N6_19
REMARK                            x       y       z     vdW  Elec       q    Type
REMARK                         _______ _______ _______ _____ _____    ______ ____
ROOT
ATOM      1  N1  UNL     1     153.416 158.994 168.226  0.00  0.00    +0.000 N 
ATOM      2  C6  UNL     1     152.942 160.279 167.875  0.00  0.00    +0.000 A 
ATOM      3  N2  UNL     1     153.537 161.223 167.127  0.00  0.00    +0.000 NA
ATOM      4  N3  UNL     1     152.786 162.308 167.087  0.00  0.00    +0.000 N 
ATOM      5  C7  UNL     1     151.659 162.108 167.815  0.00  0.00    +0.000 A 
ATOM      6  N4  UNL     1     150.589 162.887 168.083  0.00  0.00    +0.000 NA
ATOM      7  C8  UNL     1     149.591 162.424 168.844  0.00  0.00    +0.000 C 
ATOM      8  N5  UNL     1     149.691 161.179 169.323  0.00  0.00    +0.000 NA
ATOM      9  C9  UNL     1     150.715 160.340 169.106  0.00  0.00    +0.000 C 
ATOM     10  C10 UNL     1     151.758 160.822 168.313  0.00  0.00    +0.000 A 
ATOM     11  H3  UNL     1     152.908 158.369 168.892  0.00  0.00    +0.000 HD
ATOM     12  H4  UNL     1     153.035 163.170 166.574  0.00  0.00    +0.000 HD
ENDROOT
BRANCH   1  16
ATOM     13  C2  UNL     1     156.941 157.331 166.637  0.00  0.00    +0.000 A 
ATOM     14  C3  UNL     1     156.894 157.785 167.946  0.00  0.00    +0.000 A 
ATOM     15  C4  UNL     1     155.760 158.335 168.457  0.00  0.00    +0.000 A 
ATOM     16  C5  UNL     1     154.627 158.461 167.700  0.00  0.00    +0.000 A 
ATOM     17  C17 UNL     1     154.678 158.003 166.382  0.00  0.00    +0.000 A 
ATOM     18  C18 UNL     1     155.797 157.449 165.846  0.00  0.00    +0.000 A 
BRANCH  13  20
ATOM     19  F1  UNL     1     159.299 157.182 166.715  0.00  0.00    +0.000 F 
ATOM     20  C1  UNL     1     158.168 156.721 166.032  0.00  0.00    +0.000 C 
ATOM     21  F2  UNL     1     158.303 157.133 164.721  0.00  0.00    +0.000 F 
ATOM     22  F3  UNL     1     158.153 155.349 166.125  0.00  0.00    +0.000 F 
ENDBRANCH  13  20
ENDBRANCH   1  16
BRANCH   7  23
ATOM     23  C11 UNL     1     148.409 163.206 169.157  0.00  0.00    +0.000 A 
ATOM     24  C12 UNL     1     148.470 164.366 169.886  0.00  0.00    +0.000 A 
ATOM     25  C13 UNL     1     147.350 165.140 170.209  0.00  0.00    +0.000 A 
ATOM     26  C14 UNL     1     146.112 164.715 169.771  0.00  0.00    +0.000 A 
ATOM     27  C15 UNL     1     146.030 163.562 169.042  0.00  0.00    +0.000 A 
ATOM     28  C16 UNL     1     147.142 162.798 168.725  0.00  0.00    +0.000 A 
ENDBRANCH   7  23
BRANCH   9  29
ATOM     29  N6  UNL     1     150.763 159.021 169.618  0.00  0.00    +0.000 N 
ATOM     30  H5  UNL     1     151.381 158.324 169.195  0.00  0.00    +0.000 HD
ATOM     31  H6  UNL     1     150.166 158.767 170.420  0.00  0.00    +0.000 HD
ENDBRANCH   9  29
TORSDOF 4
ENDMDL
