MODEL 1
REMARK VINA RESULT:      -7.3      0.000      0.000
REMARK  Name = ./3D_structures\o29_MMV1580502_3D.pdb
REMARK  4 active torsions:
REMARK  status: ('A' for Active; 'I' for Inactive)
REMARK    1  A    between atoms: N1_1  and  C11_15
REMARK    2  A    between atoms: C11_15  and  C12_16
REMARK    3  A    between atoms: C15_19  and  C16_20
REMARK    4  A    between atoms: C16_20  and  N5_21
REMARK                            x       y       z     vdW  Elec       q    Type
REMARK                         _______ _______ _______ _____ _____    ______ ____
ROOT
ATOM      1  C12 UNL     1     150.312 158.707 170.246  0.00  0.00    +0.000 A 
ATOM      2  C13 UNL     1     150.443 158.047 171.473  0.00  0.00    +0.000 A 
ATOM      3  C14 UNL     1     149.534 157.083 171.865  0.00  0.00    +0.000 A 
ATOM      4  C15 UNL     1     148.463 156.726 171.076  0.00  0.00    +0.000 A 
ATOM      5  C27 UNL     1     148.337 157.382 169.861  0.00  0.00    +0.000 A 
ATOM      6  C28 UNL     1     149.237 158.346 169.458  0.00  0.00    +0.000 A 
ENDROOT
BRANCH   1   7
ATOM      7  C11 UNL     1     151.300 159.744 169.856  0.00  0.00    +0.000 C 
BRANCH   7   8
ATOM      8  N1  UNL     1     152.546 159.474 170.583  0.00  0.00    +0.000 NA
ATOM      9  C1  UNL     1     153.629 159.257 169.620  0.00  0.00    +0.000 C 
ATOM     10  C2  UNL     1     153.709 157.833 169.170  0.00  0.00    +0.000 C 
ATOM     11  N2  UNL     1     155.042 157.352 169.367  0.00  0.00    +0.000 NA
ATOM     12  C3  UNL     1     155.728 157.062 168.135  0.00  0.00    +0.000 C 
ATOM     13  C4  UNL     1     157.234 157.074 168.430  0.00  0.00    +0.000 C 
ATOM     14  C5  UNL     1     157.598 158.442 168.912  0.00  0.00    +0.000 C 
ATOM     15  N3  UNL     1     158.408 158.462 170.087  0.00  0.00    +0.000 NA
ATOM     16  C6  UNL     1     157.687 158.384 171.322  0.00  0.00    +0.000 C 
ATOM     17  C7  UNL     1     157.035 159.683 171.709  0.00  0.00    +0.000 C 
ATOM     18  N4  UNL     1     155.860 159.499 172.529  0.00  0.00    +0.000 NA
ATOM     19  C8  UNL     1     155.058 160.714 172.512  0.00  0.00    +0.000 C 
ATOM     20  C9  UNL     1     153.594 160.374 172.634  0.00  0.00    +0.000 C 
ATOM     21  C10 UNL     1     152.836 160.676 171.364  0.00  0.00    +0.000 C 
ATOM     22  H5  UNL     1     155.085 156.475 169.949  0.00  0.00    +0.000 HD
ATOM     23  H12 UNL     1     159.239 157.834 170.040  0.00  0.00    +0.000 HD
ATOM     24  H17 UNL     1     155.326 158.652 172.313  0.00  0.00    +0.000 HD
ENDBRANCH   7   8
ENDBRANCH   1   7
BRANCH   4  25
ATOM     25  C16 UNL     1     147.473 155.691 171.464  0.00  0.00    +0.000 C 
BRANCH  25  26
ATOM     26  N5  UNL     1     146.767 155.106 170.367  0.00  0.00    +0.000 NA
ATOM     27  C17 UNL     1     145.342 155.271 170.567  0.00  0.00    +0.000 C 
ATOM     28  C18 UNL     1     144.585 155.310 169.234  0.00  0.00    +0.000 C 
ATOM     29  N6  UNL     1     144.297 153.947 168.783  0.00  0.00    +0.000 NA
ATOM     30  C19 UNL     1     144.921 153.719 167.474  0.00  0.00    +0.000 C 
ATOM     31  C20 UNL     1     144.247 152.562 166.812  0.00  0.00    +0.000 C 
ATOM     32  C21 UNL     1     145.267 151.600 166.187  0.00  0.00    +0.000 C 
ATOM     33  N7  UNL     1     145.908 150.902 167.258  0.00  0.00    +0.000 NA
ATOM     34  C22 UNL     1     147.238 150.451 166.958  0.00  0.00    +0.000 C 
ATOM     35  C23 UNL     1     148.223 151.547 166.718  0.00  0.00    +0.000 C 
ATOM     36  N8  UNL     1     149.089 151.813 167.841  0.00  0.00    +0.000 NA
ATOM     37  C24 UNL     1     148.398 152.009 169.078  0.00  0.00    +0.000 C 
ATOM     38  C25 UNL     1     148.402 153.461 169.537  0.00  0.00    +0.000 C 
ATOM     39  C26 UNL     1     147.141 153.706 170.306  0.00  0.00    +0.000 C 
ATOM     40  H34 UNL     1     143.275 153.857 168.634  0.00  0.00    +0.000 HD
ATOM     41  H41 UNL     1     145.362 150.109 167.614  0.00  0.00    +0.000 HD
ATOM     42  H46 UNL     1     149.846 151.117 167.897  0.00  0.00    +0.000 HD
ENDBRANCH  25  26
ENDBRANCH   4  25
TORSDOF 4
ENDMDL
MODEL 2
REMARK VINA RESULT:      -7.2      6.695     11.858
REMARK  Name = ./3D_structures\o29_MMV1580502_3D.pdb
REMARK  4 active torsions:
REMARK  status: ('A' for Active; 'I' for Inactive)
REMARK    1  A    between atoms: N1_1  and  C11_15
REMARK    2  A    between atoms: C11_15  and  C12_16
REMARK    3  A    between atoms: C15_19  and  C16_20
REMARK    4  A    between atoms: C16_20  and  N5_21
REMARK                            x       y       z     vdW  Elec       q    Type
REMARK                         _______ _______ _______ _____ _____    ______ ____
ROOT
ATOM      1  C12 UNL     1     150.778 163.392 167.323  0.00  0.00    +0.000 A 
ATOM      2  C13 UNL     1     150.788 162.144 166.691  0.00  0.00    +0.000 A 
ATOM      3  C14 UNL     1     151.857 161.748 165.911  0.00  0.00    +0.000 A 
ATOM      4  C15 UNL     1     152.957 162.554 165.717  0.00  0.00    +0.000 A 
ATOM      5  C27 UNL     1     152.943 163.790 166.345  0.00  0.00    +0.000 A 
ATOM      6  C28 UNL     1     151.883 164.197 167.126  0.00  0.00    +0.000 A 
ENDROOT
BRANCH   1   7
ATOM      7  C11 UNL     1     149.611 163.793 168.149  0.00  0.00    +0.000 C 
BRANCH   7   8
ATOM      8  N1  UNL     1     148.522 164.165 167.238  0.00  0.00    +0.000 NA
ATOM      9  C1  UNL     1     147.256 163.646 167.762  0.00  0.00    +0.000 C 
ATOM     10  C2  UNL     1     146.996 162.240 167.325  0.00  0.00    +0.000 C 
ATOM     11  N2  UNL     1     145.702 162.167 166.719  0.00  0.00    +0.000 NA
ATOM     12  C3  UNL     1     144.765 161.378 167.474  0.00  0.00    +0.000 C 
ATOM     13  C4  UNL     1     143.354 161.794 167.041  0.00  0.00    +0.000 C 
ATOM     14  C5  UNL     1     143.182 163.246 167.362  0.00  0.00    +0.000 C 
ATOM     15  N3  UNL     1     142.628 164.026 166.304  0.00  0.00    +0.000 NA
ATOM     16  C6  UNL     1     143.577 164.507 165.345  0.00  0.00    +0.000 C 
ATOM     17  C7  UNL     1     144.374 165.683 165.840  0.00  0.00    +0.000 C 
ATOM     18  N4  UNL     1     145.676 165.778 165.220  0.00  0.00    +0.000 NA
ATOM     19  C8  UNL     1     146.534 166.641 166.019  0.00  0.00    +0.000 C 
ATOM     20  C9  UNL     1     147.968 166.184 165.923  0.00  0.00    +0.000 C 
ATOM     21  C10 UNL     1     148.473 165.627 167.231  0.00  0.00    +0.000 C 
ATOM     22  H5  UNL     1     145.721 161.762 165.746  0.00  0.00    +0.000 HD
ATOM     23  H12 UNL     1     141.766 163.619 165.883  0.00  0.00    +0.000 HD
ATOM     24  H17 UNL     1     146.100 164.873 164.995  0.00  0.00    +0.000 HD
ENDBRANCH   7   8
ENDBRANCH   1   7
BRANCH   4  25
ATOM     25  C16 UNL     1     154.124 162.157 164.890  0.00  0.00    +0.000 C 
BRANCH  25  26
ATOM     26  N5  UNL     1     155.245 161.682 165.639  0.00  0.00    +0.000 NA
ATOM     27  C17 UNL     1     156.408 162.489 165.332  0.00  0.00    +0.000 C 
ATOM     28  C18 UNL     1     157.400 162.518 166.500  0.00  0.00    +0.000 C 
ATOM     29  N6  UNL     1     158.278 161.348 166.439  0.00  0.00    +0.000 NA
ATOM     30  C19 UNL     1     158.130 160.556 167.667  0.00  0.00    +0.000 C 
ATOM     31  C20 UNL     1     159.329 159.679 167.824  0.00  0.00    +0.000 C 
ATOM     32  C21 UNL     1     158.932 158.250 168.218  0.00  0.00    +0.000 C 
ATOM     33  N7  UNL     1     158.354 157.634 167.064  0.00  0.00    +0.000 NA
ATOM     34  C22 UNL     1     157.407 156.595 167.360  0.00  0.00    +0.000 C 
ATOM     35  C23 UNL     1     156.177 157.061 168.065  0.00  0.00    +0.000 C 
ATOM     36  N8  UNL     1     155.025 157.197 167.207  0.00  0.00    +0.000 NA
ATOM     37  C24 UNL     1     155.263 157.972 166.028  0.00  0.00    +0.000 C 
ATOM     38  C25 UNL     1     154.604 159.344 166.077  0.00  0.00    +0.000 C 
ATOM     39  C26 UNL     1     155.448 160.291 165.282  0.00  0.00    +0.000 C 
ATOM     40  H34 UNL     1     159.263 161.673 166.424  0.00  0.00    +0.000 HD
ATOM     41  H41 UNL     1     159.050 157.269 166.404  0.00  0.00    +0.000 HD
ATOM     42  H46 UNL     1     154.594 156.281 167.019  0.00  0.00    +0.000 HD
ENDBRANCH  25  26
ENDBRANCH   4  25
TORSDOF 4
ENDMDL
MODEL 3
REMARK VINA RESULT:      -7.1      6.474     12.284
REMARK  Name = ./3D_structures\o29_MMV1580502_3D.pdb
REMARK  4 active torsions:
REMARK  status: ('A' for Active; 'I' for Inactive)
REMARK    1  A    between atoms: N1_1  and  C11_15
REMARK    2  A    between atoms: C11_15  and  C12_16
REMARK    3  A    between atoms: C15_19  and  C16_20
REMARK    4  A    between atoms: C16_20  and  N5_21
REMARK                            x       y       z     vdW  Elec       q    Type
REMARK                         _______ _______ _______ _____ _____    ______ ____
ROOT
ATOM      1  C12 UNL     1     158.381 154.551 162.943  0.00  0.00    +0.000 A 
ATOM      2  C13 UNL     1     158.783 155.839 162.570  0.00  0.00    +0.000 A 
ATOM      3  C14 UNL     1     158.837 156.865 163.493  0.00  0.00    +0.000 A 
ATOM      4  C15 UNL     1     158.502 156.675 164.815  0.00  0.00    +0.000 A 
ATOM      5  C27 UNL     1     158.106 155.399 165.181  0.00  0.00    +0.000 A 
ATOM      6  C28 UNL     1     158.047 154.366 164.270  0.00  0.00    +0.000 A 
ENDROOT
BRANCH   1   7
ATOM      7  C11 UNL     1     158.325 153.471 161.926  0.00  0.00    +0.000 C 
BRANCH   7   8
ATOM      8  N1  UNL     1     158.033 152.213 162.623  0.00  0.00    +0.000 NA
ATOM      9  C1  UNL     1     157.371 151.291 161.696  0.00  0.00    +0.000 C 
ATOM     10  C2  UNL     1     155.889 151.491 161.661  0.00  0.00    +0.000 C 
ATOM     11  N2  UNL     1     155.240 150.239 161.904  0.00  0.00    +0.000 NA
ATOM     12  C3  UNL     1     154.511 149.747 160.765  0.00  0.00    +0.000 C 
ATOM     13  C4  UNL     1     154.323 148.236 160.952  0.00  0.00    +0.000 C 
ATOM     14  C5  UNL     1     155.679 147.606 161.006  0.00  0.00    +0.000 C 
ATOM     15  N3  UNL     1     155.860 146.680 162.076  0.00  0.00    +0.000 NA
ATOM     16  C6  UNL     1     156.249 147.265 163.325  0.00  0.00    +0.000 C 
ATOM     17  C7  UNL     1     157.702 147.652 163.369  0.00  0.00    +0.000 C 
ATOM     18  N4  UNL     1     157.964 148.745 164.278  0.00  0.00    +0.000 NA
ATOM     19  C8  UNL     1     159.256 149.338 163.968  0.00  0.00    +0.000 C 
ATOM     20  C9  UNL     1     159.238 150.816 164.269  0.00  0.00    +0.000 C 
ATOM     21  C10 UNL     1     159.324 151.650 163.015  0.00  0.00    +0.000 C 
ATOM     22  H5  UNL     1     154.558 150.273 162.706  0.00  0.00    +0.000 HD
ATOM     23  H12 UNL     1     155.101 145.970 162.157  0.00  0.00    +0.000 HD
ATOM     24  H17 UNL     1     157.203 149.428 164.342  0.00  0.00    +0.000 HD
ENDBRANCH   7   8
ENDBRANCH   1   7
BRANCH   4  25
ATOM     25  C16 UNL     1     158.556 157.755 165.833  0.00  0.00    +0.000 C 
BRANCH  25  26
ATOM     26  N5  UNL     1     157.340 157.943 166.560  0.00  0.00    +0.000 NA
ATOM     27  C17 UNL     1     156.322 158.462 165.671  0.00  0.00    +0.000 C 
ATOM     28  C18 UNL     1     154.914 158.067 166.132  0.00  0.00    +0.000 C 
ATOM     29  N6  UNL     1     154.430 159.020 167.134  0.00  0.00    +0.000 NA
ATOM     30  C19 UNL     1     154.142 158.312 168.388  0.00  0.00    +0.000 C 
ATOM     31  C20 UNL     1     153.221 159.148 169.214  0.00  0.00    +0.000 C 
ATOM     32  C21 UNL     1     153.670 159.198 170.681  0.00  0.00    +0.000 C 
ATOM     33  N7  UNL     1     154.837 160.023 170.742  0.00  0.00    +0.000 NA
ATOM     34  C22 UNL     1     155.723 159.713 171.830  0.00  0.00    +0.000 C 
ATOM     35  C23 UNL     1     156.348 158.360 171.751  0.00  0.00    +0.000 C 
ATOM     36  N8  UNL     1     157.713 158.371 171.282  0.00  0.00    +0.000 NA
ATOM     37  C24 UNL     1     157.905 159.095 170.063  0.00  0.00    +0.000 C 
ATOM     38  C25 UNL     1     158.165 158.186 168.868  0.00  0.00    +0.000 C 
ATOM     39  C26 UNL     1     157.621 158.860 167.648  0.00  0.00    +0.000 C 
ATOM     40  H34 UNL     1     153.527 159.411 166.810  0.00  0.00    +0.000 HD
ATOM     41  H41 UNL     1     154.627 161.027 170.762  0.00  0.00    +0.000 HD
ATOM     42  H46 UNL     1     158.360 158.649 172.034  0.00  0.00    +0.000 HD
ENDBRANCH  25  26
ENDBRANCH   4  25
TORSDOF 4
ENDMDL
MODEL 4
REMARK VINA RESULT:      -7.0      1.811     10.149
REMARK  Name = ./3D_structures\o29_MMV1580502_3D.pdb
REMARK  4 active torsions:
REMARK  status: ('A' for Active; 'I' for Inactive)
REMARK    1  A    between atoms: N1_1  and  C11_15
REMARK    2  A    between atoms: C11_15  and  C12_16
REMARK    3  A    between atoms: C15_19  and  C16_20
REMARK    4  A    between atoms: C16_20  and  N5_21
REMARK                            x       y       z     vdW  Elec       q    Type
REMARK                         _______ _______ _______ _____ _____    ______ ____
ROOT
ATOM      1  C12 UNL     1     148.018 158.645 168.916  0.00  0.00    +0.000 A 
ATOM      2  C13 UNL     1     147.993 159.767 168.079  0.00  0.00    +0.000 A 
ATOM      3  C14 UNL     1     149.105 160.573 167.935  0.00  0.00    +0.000 A 
ATOM      4  C15 UNL     1     150.283 160.318 168.600  0.00  0.00    +0.000 A 
ATOM      5  C27 UNL     1     150.304 159.206 169.427  0.00  0.00    +0.000 A 
ATOM      6  C28 UNL     1     149.202 158.392 169.581  0.00  0.00    +0.000 A 
ENDROOT
BRANCH   1   7
ATOM      7  C11 UNL     1     146.805 157.801 169.056  0.00  0.00    +0.000 C 
BRANCH   7   8
ATOM      8  N1  UNL     1     147.069 156.519 168.393  0.00  0.00    +0.000 NA
ATOM      9  C1  UNL     1     146.662 155.425 169.279  0.00  0.00    +0.000 C 
ATOM     10  C2  UNL     1     147.746 155.034 170.231  0.00  0.00    +0.000 C 
ATOM     11  N2  UNL     1     147.975 153.625 170.130  0.00  0.00    +0.000 NA
ATOM     12  C3  UNL     1     147.612 152.904 171.322  0.00  0.00    +0.000 C 
ATOM     13  C4  UNL     1     147.400 151.437 170.929  0.00  0.00    +0.000 C 
ATOM     14  C5  UNL     1     146.284 151.382 169.934  0.00  0.00    +0.000 C 
ATOM     15  N3  UNL     1     146.555 150.584 168.782  0.00  0.00    +0.000 NA
ATOM     16  C6  UNL     1     147.257 151.257 167.730  0.00  0.00    +0.000 C 
ATOM     17  C7  UNL     1     146.379 152.179 166.928  0.00  0.00    +0.000 C 
ATOM     18  N4  UNL     1     147.110 153.275 166.334  0.00  0.00    +0.000 NA
ATOM     19  C8  UNL     1     146.182 154.327 165.948  0.00  0.00    +0.000 C 
ATOM     20  C9  UNL     1     146.841 155.677 166.080  0.00  0.00    +0.000 C 
ATOM     21  C10 UNL     1     146.235 156.497 167.193  0.00  0.00    +0.000 C 
ATOM     22  H5  UNL     1     148.980 153.381 169.926  0.00  0.00    +0.000 HD
ATOM     23  H12 UNL     1     146.925 149.635 169.001  0.00  0.00    +0.000 HD
ATOM     24  H17 UNL     1     147.897 153.608 166.898  0.00  0.00    +0.000 HD
ENDBRANCH   7   8
ENDBRANCH   1   7
BRANCH   4  25
ATOM     25  C16 UNL     1     151.498 161.161 168.463  0.00  0.00    +0.000 C 
BRANCH  25  26
ATOM     26  N5  UNL     1     152.595 160.757 169.285  0.00  0.00    +0.000 NA
ATOM     27  C17 UNL     1     152.935 161.828 170.198  0.00  0.00    +0.000 C 
ATOM     28  C18 UNL     1     153.571 161.293 171.486  0.00  0.00    +0.000 C 
ATOM     29  N6  UNL     1     155.008 161.094 171.288  0.00  0.00    +0.000 NA
ATOM     30  C19 UNL     1     155.347 159.684 171.516  0.00  0.00    +0.000 C 
ATOM     31  C20 UNL     1     156.810 159.577 171.795  0.00  0.00    +0.000 C 
ATOM     32  C21 UNL     1     157.448 158.418 171.017  0.00  0.00    +0.000 C 
ATOM     33  N7  UNL     1     157.510 158.809 169.642  0.00  0.00    +0.000 NA
ATOM     34  C22 UNL     1     157.486 157.713 168.714  0.00  0.00    +0.000 C 
ATOM     35  C23 UNL     1     156.217 156.928 168.717  0.00  0.00    +0.000 C 
ATOM     36  N8  UNL     1     155.331 157.240 167.622  0.00  0.00    +0.000 NA
ATOM     37  C24 UNL     1     155.067 158.637 167.465  0.00  0.00    +0.000 C 
ATOM     38  C25 UNL     1     153.657 159.026 167.890  0.00  0.00    +0.000 C 
ATOM     39  C26 UNL     1     153.701 160.432 168.404  0.00  0.00    +0.000 C 
ATOM     40  H34 UNL     1     155.519 161.633 172.012  0.00  0.00    +0.000 HD
ATOM     41  H41 UNL     1     158.313 159.410 169.425  0.00  0.00    +0.000 HD
ATOM     42  H46 UNL     1     155.639 156.778 166.754  0.00  0.00    +0.000 HD
ENDBRANCH  25  26
ENDBRANCH   4  25
TORSDOF 4
ENDMDL
MODEL 5
REMARK VINA RESULT:      -7.0      1.041     10.529
REMARK  Name = ./3D_structures\o29_MMV1580502_3D.pdb
REMARK  4 active torsions:
REMARK  status: ('A' for Active; 'I' for Inactive)
REMARK    1  A    between atoms: N1_1  and  C11_15
REMARK    2  A    between atoms: C11_15  and  C12_16
REMARK    3  A    between atoms: C15_19  and  C16_20
REMARK    4  A    between atoms: C16_20  and  N5_21
REMARK                            x       y       z     vdW  Elec       q    Type
REMARK                         _______ _______ _______ _____ _____    ______ ____
ROOT
ATOM      1  C12 UNL     1     148.603 156.324 170.720  0.00  0.00    +0.000 A 
ATOM      2  C13 UNL     1     149.936 156.347 171.146  0.00  0.00    +0.000 A 
ATOM      3  C14 UNL     1     150.800 157.341 170.731  0.00  0.00    +0.000 A 
ATOM      4  C15 UNL     1     150.398 158.351 169.886  0.00  0.00    +0.000 A 
ATOM      5  C27 UNL     1     149.077 158.326 169.466  0.00  0.00    +0.000 A 
ATOM      6  C28 UNL     1     148.204 157.339 169.872  0.00  0.00    +0.000 A 
ENDROOT
BRANCH   1   7
ATOM      7  C11 UNL     1     147.700 155.237 171.176  0.00  0.00    +0.000 C 
BRANCH   7   8
ATOM      8  N1  UNL     1     146.795 154.909 170.068  0.00  0.00    +0.000 NA
ATOM      9  C1  UNL     1     146.910 153.481 169.758  0.00  0.00    +0.000 C 
ATOM     10  C2  UNL     1     148.019 153.198 168.796  0.00  0.00    +0.000 C 
ATOM     11  N2  UNL     1     147.505 152.444 167.694  0.00  0.00    +0.000 NA
ATOM     12  C3  UNL     1     148.029 151.105 167.629  0.00  0.00    +0.000 C 
ATOM     13  C4  UNL     1     147.057 150.268 166.787  0.00  0.00    +0.000 C 
ATOM     14  C5  UNL     1     145.730 150.269 167.477  0.00  0.00    +0.000 C 
ATOM     15  N3  UNL     1     144.618 150.544 166.626  0.00  0.00    +0.000 NA
ATOM     16  C6  UNL     1     144.342 151.935 166.421  0.00  0.00    +0.000 C 
ATOM     17  C7  UNL     1     143.649 152.579 167.591  0.00  0.00    +0.000 C 
ATOM     18  N4  UNL     1     143.917 153.995 167.691  0.00  0.00    +0.000 NA
ATOM     19  C8  UNL     1     143.587 154.460 169.031  0.00  0.00    +0.000 C 
ATOM     20  C9  UNL     1     144.505 155.588 169.432  0.00  0.00    +0.000 C 
ATOM     21  C10 UNL     1     145.442 155.187 170.545  0.00  0.00    +0.000 C 
ATOM     22  H5  UNL     1     147.700 152.888 166.759  0.00  0.00    +0.000 HD
ATOM     23  H12 UNL     1     144.600 149.974 165.753  0.00  0.00    +0.000 HD
ATOM     24  H17 UNL     1     144.854 154.268 167.381  0.00  0.00    +0.000 HD
ENDBRANCH   7   8
ENDBRANCH   1   7
BRANCH   4  25
ATOM     25  C16 UNL     1     151.300 159.438 169.426  0.00  0.00    +0.000 C 
BRANCH  25  26
ATOM     26  N5  UNL     1     152.637 159.346 169.923  0.00  0.00    +0.000 NA
ATOM     27  C17 UNL     1     152.877 160.419 170.865  0.00  0.00    +0.000 C 
ATOM     28  C18 UNL     1     153.942 160.037 171.899  0.00  0.00    +0.000 C 
ATOM     29  N6  UNL     1     155.278 160.300 171.360  0.00  0.00    +0.000 NA
ATOM     30  C19 UNL     1     156.051 159.052 171.325  0.00  0.00    +0.000 C 
ATOM     31  C20 UNL     1     157.505 159.384 171.253  0.00  0.00    +0.000 C 
ATOM     32  C21 UNL     1     158.228 158.521 170.210  0.00  0.00    +0.000 C 
ATOM     33  N7  UNL     1     157.828 158.986 168.918  0.00  0.00    +0.000 NA
ATOM     34  C22 UNL     1     157.883 157.987 167.887  0.00  0.00    +0.000 C 
ATOM     35  C23 UNL     1     156.934 156.851 168.075  0.00  0.00    +0.000 C 
ATOM     36  N8  UNL     1     155.749 156.934 167.254  0.00  0.00    +0.000 NA
ATOM     37  C24 UNL     1     155.068 158.190 167.340  0.00  0.00    +0.000 C 
ATOM     38  C25 UNL     1     153.761 158.103 168.117  0.00  0.00    +0.000 C 
ATOM     39  C26 UNL     1     153.531 159.424 168.783  0.00  0.00    +0.000 C 
ATOM     40  H34 UNL     1     155.780 160.929 172.013  0.00  0.00    +0.000 HD
ATOM     41  H41 UNL     1     158.344 159.814 168.604  0.00  0.00    +0.000 HD
ATOM     42  H46 UNL     1     155.947 156.637 166.289  0.00  0.00    +0.000 HD
ENDBRANCH  25  26
ENDBRANCH   4  25
TORSDOF 4
ENDMDL
MODEL 6
REMARK VINA RESULT:      -6.9      1.888      2.536
REMARK  Name = ./3D_structures\o29_MMV1580502_3D.pdb
REMARK  4 active torsions:
REMARK  status: ('A' for Active; 'I' for Inactive)
REMARK    1  A    between atoms: N1_1  and  C11_15
REMARK    2  A    between atoms: C11_15  and  C12_16
REMARK    3  A    between atoms: C15_19  and  C16_20
REMARK    4  A    between atoms: C16_20  and  N5_21
REMARK                            x       y       z     vdW  Elec       q    Type
REMARK                         _______ _______ _______ _____ _____    ______ ____
ROOT
ATOM      1  C12 UNL     1     152.178 158.903 170.573  0.00  0.00    +0.000 A 
ATOM      2  C13 UNL     1     152.225 157.647 169.958  0.00  0.00    +0.000 A 
ATOM      3  C14 UNL     1     151.323 156.656 170.291  0.00  0.00    +0.000 A 
ATOM      4  C15 UNL     1     150.340 156.850 171.235  0.00  0.00    +0.000 A 
ATOM      5  C27 UNL     1     150.295 158.096 171.841  0.00  0.00    +0.000 A 
ATOM      6  C28 UNL     1     151.189 159.094 171.519  0.00  0.00    +0.000 A 
ENDROOT
BRANCH   1   7
ATOM      7  C11 UNL     1     153.166 159.946 170.201  0.00  0.00    +0.000 C 
BRANCH   7   8
ATOM      8  N1  UNL     1     154.440 159.277 169.914  0.00  0.00    +0.000 NA
ATOM      9  C1  UNL     1     155.030 159.860 168.706  0.00  0.00    +0.000 C 
ATOM     10  C2  UNL     1     154.529 159.205 167.459  0.00  0.00    +0.000 C 
ATOM     11  N2  UNL     1     155.644 158.776 166.672  0.00  0.00    +0.000 NA
ATOM     12  C3  UNL     1     155.769 159.489 165.428  0.00  0.00    +0.000 C 
ATOM     13  C4  UNL     1     157.218 159.335 164.949  0.00  0.00    +0.000 C 
ATOM     14  C5  UNL     1     158.112 159.943 165.984  0.00  0.00    +0.000 C 
ATOM     15  N3  UNL     1     159.229 159.135 166.353  0.00  0.00    +0.000 NA
ATOM     16  C6  UNL     1     158.963 158.164 167.372  0.00  0.00    +0.000 C 
ATOM     17  C7  UNL     1     158.895 158.759 168.752  0.00  0.00    +0.000 C 
ATOM     18  N4  UNL     1     158.055 157.999 169.650  0.00  0.00    +0.000 NA
ATOM     19  C8  UNL     1     157.694 158.823 170.794  0.00  0.00    +0.000 C 
ATOM     20  C9  UNL     1     156.320 158.451 171.292  0.00  0.00    +0.000 C 
ATOM     21  C10 UNL     1     155.315 159.551 171.053  0.00  0.00    +0.000 C 
ATOM     22  H5  UNL     1     155.611 157.751 166.429  0.00  0.00    +0.000 HD
ATOM     23  H12 UNL     1     159.771 158.764 165.543  0.00  0.00    +0.000 HD
ATOM     24  H17 UNL     1     157.253 157.553 169.196  0.00  0.00    +0.000 HD
ENDBRANCH   7   8
ENDBRANCH   1   7
BRANCH   4  25
ATOM     25  C16 UNL     1     149.351 155.808 171.611  0.00  0.00    +0.000 C 
BRANCH  25  26
ATOM     26  N5  UNL     1     148.519 155.367 170.535  0.00  0.00    +0.000 NA
ATOM     27  C17 UNL     1     147.145 155.730 170.808  0.00  0.00    +0.000 C 
ATOM     28  C18 UNL     1     146.343 155.921 169.515  0.00  0.00    +0.000 C 
ATOM     29  N6  UNL     1     145.838 154.629 169.045  0.00  0.00    +0.000 NA
ATOM     30  C19 UNL     1     146.363 154.354 167.702  0.00  0.00    +0.000 C 
ATOM     31  C20 UNL     1     145.498 153.329 167.045  0.00  0.00    +0.000 C 
ATOM     32  C21 UNL     1     146.337 152.249 166.347  0.00  0.00    +0.000 C 
ATOM     33  N7  UNL     1     146.916 151.432 167.368  0.00  0.00    +0.000 NA
ATOM     34  C22 UNL     1     148.151 150.803 166.992  0.00  0.00    +0.000 C 
ATOM     35  C23 UNL     1     149.274 151.752 166.732  0.00  0.00    +0.000 C 
ATOM     36  N8  UNL     1     150.220 151.853 167.818  0.00  0.00    +0.000 NA
ATOM     37  C24 UNL     1     149.620 152.108 169.092  0.00  0.00    +0.000 C 
ATOM     38  C25 UNL     1     149.857 153.530 169.585  0.00  0.00    +0.000 C 
ATOM     39  C26 UNL     1     148.682 153.930 170.421  0.00  0.00    +0.000 C 
ATOM     40  H34 UNL     1     144.809 154.693 168.944  0.00  0.00    +0.000 HD
ATOM     41  H41 UNL     1     146.277 150.716 167.730  0.00  0.00    +0.000 HD
ATOM     42  H46 UNL     1     150.869 151.054 167.819  0.00  0.00    +0.000 HD
ENDBRANCH  25  26
ENDBRANCH   4  25
TORSDOF 4
ENDMDL
MODEL 7
REMARK VINA RESULT:      -6.9      0.893      2.367
REMARK  Name = ./3D_structures\o29_MMV1580502_3D.pdb
REMARK  4 active torsions:
REMARK  status: ('A' for Active; 'I' for Inactive)
REMARK    1  A    between atoms: N1_1  and  C11_15
REMARK    2  A    between atoms: C11_15  and  C12_16
REMARK    3  A    between atoms: C15_19  and  C16_20
REMARK    4  A    between atoms: C16_20  and  N5_21
REMARK                            x       y       z     vdW  Elec       q    Type
REMARK                         _______ _______ _______ _____ _____    ______ ____
ROOT
ATOM      1  C12 UNL     1     150.244 158.679 170.178  0.00  0.00    +0.000 A 
ATOM      2  C13 UNL     1     150.456 157.840 171.278  0.00  0.00    +0.000 A 
ATOM      3  C14 UNL     1     149.570 156.825 171.582  0.00  0.00    +0.000 A 
ATOM      4  C15 UNL     1     148.443 156.590 170.826  0.00  0.00    +0.000 A 
ATOM      5  C27 UNL     1     148.237 157.422 169.737  0.00  0.00    +0.000 A 
ATOM      6  C28 UNL     1     149.113 158.438 169.422  0.00  0.00    +0.000 A 
ENDROOT
BRANCH   1   7
ATOM      7  C11 UNL     1     151.210 159.766 169.881  0.00  0.00    +0.000 C 
BRANCH   7   8
ATOM      8  N1  UNL     1     152.447 159.483 170.619  0.00  0.00    +0.000 NA
ATOM      9  C1  UNL     1     153.540 159.274 169.666  0.00  0.00    +0.000 C 
ATOM     10  C2  UNL     1     153.621 157.855 169.200  0.00  0.00    +0.000 C 
ATOM     11  N2  UNL     1     154.950 157.367 169.407  0.00  0.00    +0.000 NA
ATOM     12  C3  UNL     1     155.649 157.089 168.180  0.00  0.00    +0.000 C 
ATOM     13  C4  UNL     1     157.151 157.092 168.493  0.00  0.00    +0.000 C 
ATOM     14  C5  UNL     1     157.514 158.454 168.996  0.00  0.00    +0.000 C 
ATOM     15  N3  UNL     1     158.311 158.456 170.180  0.00  0.00    +0.000 NA
ATOM     16  C6  UNL     1     157.575 158.366 171.405  0.00  0.00    +0.000 C 
ATOM     17  C7  UNL     1     156.923 159.663 171.801  0.00  0.00    +0.000 C 
ATOM     18  N4  UNL     1     155.737 159.473 172.604  0.00  0.00    +0.000 NA
ATOM     19  C8  UNL     1     154.940 160.690 172.592  0.00  0.00    +0.000 C 
ATOM     20  C9  UNL     1     153.473 160.354 172.693  0.00  0.00    +0.000 C 
ATOM     21  C10 UNL     1     152.731 160.674 171.418  0.00  0.00    +0.000 C 
ATOM     22  H5  UNL     1     154.983 156.482 169.979  0.00  0.00    +0.000 HD
ATOM     23  H12 UNL     1     159.141 157.826 170.135  0.00  0.00    +0.000 HD
ATOM     24  H17 UNL     1     155.204 158.631 172.372  0.00  0.00    +0.000 HD
ENDBRANCH   7   8
ENDBRANCH   1   7
BRANCH   4  25
ATOM     25  C16 UNL     1     147.474 155.504 171.123  0.00  0.00    +0.000 C 
BRANCH  25  26
ATOM     26  N5  UNL     1     147.536 154.395 170.224  0.00  0.00    +0.000 NA
ATOM     27  C17 UNL     1     148.881 153.860 170.209  0.00  0.00    +0.000 C 
ATOM     28  C18 UNL     1     148.893 152.368 169.857  0.00  0.00    +0.000 C 
ATOM     29  N6  UNL     1     148.881 152.198 168.403  0.00  0.00    +0.000 NA
ATOM     30  C19 UNL     1     147.690 151.435 168.006  0.00  0.00    +0.000 C 
ATOM     31  C20 UNL     1     147.918 150.854 166.649  0.00  0.00    +0.000 C 
ATOM     32  C21 UNL     1     146.693 151.042 165.744  0.00  0.00    +0.000 C 
ATOM     33  N7  UNL     1     146.634 152.426 165.387  0.00  0.00    +0.000 NA
ATOM     34  C22 UNL     1     145.312 152.904 165.091  0.00  0.00    +0.000 C 
ATOM     35  C23 UNL     1     144.371 152.879 166.250  0.00  0.00    +0.000 C 
ATOM     36  N8  UNL     1     144.171 154.167 166.870  0.00  0.00    +0.000 NA
ATOM     37  C24 UNL     1     145.384 154.846 167.210  0.00  0.00    +0.000 C 
ATOM     38  C25 UNL     1     145.651 154.867 168.710  0.00  0.00    +0.000 C 
ATOM     39  C26 UNL     1     147.134 154.872 168.915  0.00  0.00    +0.000 C 
ATOM     40  H34 UNL     1     149.696 151.619 168.130  0.00  0.00    +0.000 HD
ATOM     41  H41 UNL     1     147.257 152.675 164.612  0.00  0.00    +0.000 HD
ATOM     42  H46 UNL     1     143.515 154.743 166.323  0.00  0.00    +0.000 HD
ENDBRANCH  25  26
ENDBRANCH   4  25
TORSDOF 4
ENDMDL
MODEL 8
REMARK VINA RESULT:      -6.9      5.157      6.319
REMARK  Name = ./3D_structures\o29_MMV1580502_3D.pdb
REMARK  4 active torsions:
REMARK  status: ('A' for Active; 'I' for Inactive)
REMARK    1  A    between atoms: N1_1  and  C11_15
REMARK    2  A    between atoms: C11_15  and  C12_16
REMARK    3  A    between atoms: C15_19  and  C16_20
REMARK    4  A    between atoms: C16_20  and  N5_21
REMARK                            x       y       z     vdW  Elec       q    Type
REMARK                         _______ _______ _______ _____ _____    ______ ____
ROOT
ATOM      1  C12 UNL     1     150.907 161.811 167.848  0.00  0.00    +0.000 A 
ATOM      2  C13 UNL     1     150.345 160.578 168.199  0.00  0.00    +0.000 A 
ATOM      3  C14 UNL     1     148.975 160.398 168.220  0.00  0.00    +0.000 A 
ATOM      4  C15 UNL     1     148.101 161.414 167.901  0.00  0.00    +0.000 A 
ATOM      5  C27 UNL     1     148.661 162.633 167.554  0.00  0.00    +0.000 A 
ATOM      6  C28 UNL     1     150.026 162.826 167.529  0.00  0.00    +0.000 A 
ENDROOT
BRANCH   1   7
ATOM      7  C11 UNL     1     152.382 161.975 167.842  0.00  0.00    +0.000 C 
BRANCH   7   8
ATOM      8  N1  UNL     1     152.918 161.269 169.011  0.00  0.00    +0.000 NA
ATOM      9  C1  UNL     1     154.259 160.766 168.698  0.00  0.00    +0.000 C 
ATOM     10  C2  UNL     1     154.221 159.425 168.039  0.00  0.00    +0.000 C 
ATOM     11  N2  UNL     1     155.065 158.522 168.760  0.00  0.00    +0.000 NA
ATOM     12  C3  UNL     1     156.216 158.097 168.008  0.00  0.00    +0.000 C 
ATOM     13  C4  UNL     1     157.265 157.597 169.010  0.00  0.00    +0.000 C 
ATOM     14  C5  UNL     1     157.628 158.740 169.905  0.00  0.00    +0.000 C 
ATOM     15  N3  UNL     1     157.641 158.422 171.296  0.00  0.00    +0.000 NA
ATOM     16  C6  UNL     1     156.370 158.512 171.951  0.00  0.00    +0.000 C 
ATOM     17  C7  UNL     1     155.954 159.927 172.244  0.00  0.00    +0.000 C 
ATOM     18  N4  UNL     1     154.519 160.090 172.300  0.00  0.00    +0.000 NA
ATOM     19  C8  UNL     1     154.182 161.498 172.160  0.00  0.00    +0.000 C 
ATOM     20  C9  UNL     1     152.859 161.651 171.453  0.00  0.00    +0.000 C 
ATOM     21  C10 UNL     1     153.018 162.260 170.081  0.00  0.00    +0.000 C 
ATOM     22  H5  UNL     1     154.568 157.646 169.070  0.00  0.00    +0.000 HD
ATOM     23  H12 UNL     1     158.180 157.561 171.530  0.00  0.00    +0.000 HD
ATOM     24  H17 UNL     1     154.003 159.479 171.661  0.00  0.00    +0.000 HD
ENDBRANCH   7   8
ENDBRANCH   1   7
BRANCH   4  25
ATOM     25  C16 UNL     1     146.625 161.252 167.909  0.00  0.00    +0.000 C 
BRANCH  25  26
ATOM     26  N5  UNL     1     145.990 161.565 166.667  0.00  0.00    +0.000 NA
ATOM     27  C17 UNL     1     145.311 162.839 166.780  0.00  0.00    +0.000 C 
ATOM     28  C18 UNL     1     145.203 163.545 165.424  0.00  0.00    +0.000 C 
ATOM     29  N6  UNL     1     144.028 163.058 164.698  0.00  0.00    +0.000 NA
ATOM     30  C19 UNL     1     144.448 162.462 163.424  0.00  0.00    +0.000 C 
ATOM     31  C20 UNL     1     143.275 162.419 162.500  0.00  0.00    +0.000 C 
ATOM     32  C21 UNL     1     143.171 161.065 161.786  0.00  0.00    +0.000 C 
ATOM     33  N7  UNL     1     142.732 160.105 162.751  0.00  0.00    +0.000 NA
ATOM     34  C22 UNL     1     143.148 158.758 162.477  0.00  0.00    +0.000 C 
ATOM     35  C23 UNL     1     144.623 158.543 162.531  0.00  0.00    +0.000 C 
ATOM     36  N8  UNL     1     145.081 157.920 163.750  0.00  0.00    +0.000 NA
ATOM     37  C24 UNL     1     144.614 158.557 164.943  0.00  0.00    +0.000 C 
ATOM     38  C25 UNL     1     145.706 159.331 165.670  0.00  0.00    +0.000 C 
ATOM     39  C26 UNL     1     145.064 160.489 166.369  0.00  0.00    +0.000 C 
ATOM     40  H34 UNL     1     143.431 163.869 164.454  0.00  0.00    +0.000 HD
ATOM     41  H41 UNL     1     141.717 160.114 162.903  0.00  0.00    +0.000 HD
ATOM     42  H46 UNL     1     144.914 156.905 163.731  0.00  0.00    +0.000 HD
ENDBRANCH  25  26
ENDBRANCH   4  25
TORSDOF 4
ENDMDL
MODEL 9
REMARK VINA RESULT:      -6.9      6.231      8.793
REMARK  Name = ./3D_structures\o29_MMV1580502_3D.pdb
REMARK  4 active torsions:
REMARK  status: ('A' for Active; 'I' for Inactive)
REMARK    1  A    between atoms: N1_1  and  C11_15
REMARK    2  A    between atoms: C11_15  and  C12_16
REMARK    3  A    between atoms: C15_19  and  C16_20
REMARK    4  A    between atoms: C16_20  and  N5_21
REMARK                            x       y       z     vdW  Elec       q    Type
REMARK                         _______ _______ _______ _____ _____    ______ ____
ROOT
ATOM      1  C12 UNL     1     153.480 162.245 171.444  0.00  0.00    +0.000 A 
ATOM      2  C13 UNL     1     152.470 162.568 172.357  0.00  0.00    +0.000 A 
ATOM      3  C14 UNL     1     151.631 163.644 172.142  0.00  0.00    +0.000 A 
ATOM      4  C15 UNL     1     151.745 164.447 171.029  0.00  0.00    +0.000 A 
ATOM      5  C27 UNL     1     152.746 164.124 170.127  0.00  0.00    +0.000 A 
ATOM      6  C28 UNL     1     153.590 163.053 170.329  0.00  0.00    +0.000 A 
ENDROOT
BRANCH   1   7
ATOM      7  C11 UNL     1     154.371 161.087 171.707  0.00  0.00    +0.000 C 
BRANCH   7   8
ATOM      8  N1  UNL     1     154.646 160.431 170.423  0.00  0.00    +0.000 NA
ATOM      9  C1  UNL     1     156.069 160.089 170.352  0.00  0.00    +0.000 C 
ATOM     10  C2  UNL     1     156.897 161.219 169.829  0.00  0.00    +0.000 C 
ATOM     11  N2  UNL     1     157.685 160.756 168.729  0.00  0.00    +0.000 NA
ATOM     12  C3  UNL     1     159.098 160.752 169.003  0.00  0.00    +0.000 C 
ATOM     13  C4  UNL     1     159.760 159.784 168.014  0.00  0.00    +0.000 C 
ATOM     14  C5  UNL     1     159.186 158.422 168.249  0.00  0.00    +0.000 C 
ATOM     15  N3  UNL     1     158.781 157.737 167.064  0.00  0.00    +0.000 NA
ATOM     16  C6  UNL     1     157.460 158.049 166.607  0.00  0.00    +0.000 C 
ATOM     17  C7  UNL     1     156.381 157.372 167.408  0.00  0.00    +0.000 C 
ATOM     18  N4  UNL     1     155.136 158.105 167.404  0.00  0.00    +0.000 NA
ATOM     19  C8  UNL     1     154.298 157.647 168.501  0.00  0.00    +0.000 C 
ATOM     20  C9  UNL     1     153.452 158.782 169.021  0.00  0.00    +0.000 C 
ATOM     21  C10 UNL     1     153.858 159.200 170.413  0.00  0.00    +0.000 C 
ATOM     22  H5  UNL     1     157.551 161.325 167.852  0.00  0.00    +0.000 HD
ATOM     23  H12 UNL     1     159.502 157.729 166.311  0.00  0.00    +0.000 HD
ATOM     24  H17 UNL     1     155.248 159.122 167.370  0.00  0.00    +0.000 HD
ENDBRANCH   7   8
ENDBRANCH   1   7
BRANCH   4  25
ATOM     25  C16 UNL     1     150.856 165.606 170.765  0.00  0.00    +0.000 C 
BRANCH  25  26
ATOM     26  N5  UNL     1     150.075 165.494 169.574  0.00  0.00    +0.000 NA
ATOM     27  C17 UNL     1     150.381 166.600 168.690  0.00  0.00    +0.000 C 
ATOM     28  C18 UNL     1     150.151 166.229 167.220  0.00  0.00    +0.000 C 
ATOM     29  N6  UNL     1     148.743 166.426 166.870  0.00  0.00    +0.000 NA
ATOM     30  C19 UNL     1     148.164 165.153 166.422  0.00  0.00    +0.000 C 
ATOM     31  C20 UNL     1     146.932 165.436 165.627  0.00  0.00    +0.000 C 
ATOM     32  C21 UNL     1     145.779 164.505 166.026  0.00  0.00    +0.000 C 
ATOM     33  N7  UNL     1     145.316 164.925 167.312  0.00  0.00    +0.000 NA
ATOM     34  C22 UNL     1     144.716 163.880 168.094  0.00  0.00    +0.000 C 
ATOM     35  C23 UNL     1     145.651 162.784 168.485  0.00  0.00    +0.000 C 
ATOM     36  N8  UNL     1     146.118 162.869 169.848  0.00  0.00    +0.000 NA
ATOM     37  C24 UNL     1     146.653 164.148 170.202  0.00  0.00    +0.000 C 
ATOM     38  C25 UNL     1     148.169 164.138 170.346  0.00  0.00    +0.000 C 
ATOM     39  C26 UNL     1     148.679 165.493 169.967  0.00  0.00    +0.000 C 
ATOM     40  H34 UNL     1     148.690 167.068 166.057  0.00  0.00    +0.000 HD
ATOM     41  H41 UNL     1     144.672 165.722 167.274  0.00  0.00    +0.000 HD
ATOM     42  H46 UNL     1     145.406 162.523 170.505  0.00  0.00    +0.000 HD
ENDBRANCH  25  26
ENDBRANCH   4  25
TORSDOF 4
ENDMDL
