MODEL 1
REMARK VINA RESULT:      -7.4      0.000      0.000
REMARK  Name = ./3D_structures\o33_MMV1580482_3D.pdb
REMARK  5 active torsions:
REMARK  status: ('A' for Active; 'I' for Inactive)
REMARK    1  A    between atoms: C3_5  and  C20_24
REMARK    2  A    between atoms: C6_8  and  C8_10
REMARK    3  A    between atoms: C11_13  and  C12_14
REMARK    4  A    between atoms: C12_14  and  N3_15
REMARK    5  A    between atoms: N4_18  and  C15_19
REMARK                            x       y       z     vdW  Elec       q    Type
REMARK                         _______ _______ _______ _____ _____    ______ ____
ROOT
ATOM      1  N1  UNL     1     160.616 158.241 164.416  0.00  0.00    +0.000 NA
ATOM      2  C1  UNL     1     160.383 157.096 163.725  0.00  0.00    +0.000 A 
ATOM      3  N2  UNL     1     160.862 156.680 162.522  0.00  0.00    +0.000 N 
ATOM      4  C2  UNL     1     160.332 155.470 162.277  0.00  0.00    +0.000 A 
ATOM      5  C3  UNL     1     159.513 155.105 163.323  0.00  0.00    +0.000 A 
ATOM      6  C4  UNL     1     159.544 156.133 164.241  0.00  0.00    +0.000 A 
ATOM      7  C5  UNL     1     158.926 156.329 165.476  0.00  0.00    +0.000 A 
ATOM      8  C6  UNL     1     159.180 157.494 166.149  0.00  0.00    +0.000 A 
ATOM      9  C7  UNL     1     160.016 158.435 165.618  0.00  0.00    +0.000 A 
ATOM     10  H1  UNL     1     161.525 157.208 161.896  0.00  0.00    +0.000 HD
ENDROOT
BRANCH   5  11
ATOM     11  C20 UNL     1     158.754 153.888 163.449  0.00  0.00    +0.000 A 
ATOM     12  C21 UNL     1     159.212 152.891 164.279  0.00  0.00    +0.000 A 
ATOM     13  C22 UNL     1     158.553 151.703 164.454  0.00  0.00    +0.000 A 
ATOM     14  C23 UNL     1     157.379 151.503 163.766  0.00  0.00    +0.000 A 
ATOM     15  N5  UNL     1     156.930 150.271 164.106  0.00  0.00    +0.000 N 
ATOM     16  C24 UNL     1     157.751 149.670 164.973  0.00  0.00    +0.000 A 
ATOM     17  C25 UNL     1     158.788 150.582 165.197  0.00  0.00    +0.000 A 
ATOM     18  C26 UNL     1     156.913 152.497 162.934  0.00  0.00    +0.000 A 
ATOM     19  C27 UNL     1     157.582 153.688 162.763  0.00  0.00    +0.000 A 
ATOM     20  H23 UNL     1     156.048 149.819 163.748  0.00  0.00    +0.000 HD
ENDBRANCH   5  11
BRANCH   8  21
ATOM     21  C8  UNL     1     158.531 157.708 167.450  0.00  0.00    +0.000 A 
ATOM     22  C9  UNL     1     157.302 157.116 167.644  0.00  0.00    +0.000 A 
ATOM     23  C10 UNL     1     156.666 157.296 168.849  0.00  0.00    +0.000 A 
ATOM     24  C11 UNL     1     157.268 158.065 169.840  0.00  0.00    +0.000 A 
ATOM     25  C18 UNL     1     158.499 158.656 169.644  0.00  0.00    +0.000 A 
ATOM     26  C19 UNL     1     159.139 158.471 168.422  0.00  0.00    +0.000 A 
BRANCH  24  27
ATOM     27  C12 UNL     1     156.592 158.277 171.147  0.00  0.00    +0.000 C 
BRANCH  27  28
ATOM     28  N3  UNL     1     155.993 159.575 171.279  0.00  0.00    +0.000 NA
ATOM     29  C13 UNL     1     156.393 160.180 172.512  0.00  0.00    +0.000 C 
ATOM     30  C14 UNL     1     155.428 159.743 173.589  0.00  0.00    +0.000 C 
ATOM     31  N4  UNL     1     154.132 160.333 173.347  0.00  0.00    +0.000 NA
ATOM     32  C15 UNL     1     154.115 161.668 173.917  0.00  0.00    +0.000 C 
ATOM     33  C16 UNL     1     153.798 160.445 171.951  0.00  0.00    +0.000 C 
ATOM     34  C17 UNL     1     154.588 159.494 171.085  0.00  0.00    +0.000 C 
ENDBRANCH  27  28
ENDBRANCH  24  27
ENDBRANCH   8  21
TORSDOF 4
ENDMDL
MODEL 2
REMARK VINA RESULT:      -7.4      1.807      2.358
REMARK  Name = ./3D_structures\o33_MMV1580482_3D.pdb
REMARK  5 active torsions:
REMARK  status: ('A' for Active; 'I' for Inactive)
REMARK    1  A    between atoms: C3_5  and  C20_24
REMARK    2  A    between atoms: C6_8  and  C8_10
REMARK    3  A    between atoms: C11_13  and  C12_14
REMARK    4  A    between atoms: C12_14  and  N3_15
REMARK    5  A    between atoms: N4_18  and  C15_19
REMARK                            x       y       z     vdW  Elec       q    Type
REMARK                         _______ _______ _______ _____ _____    ______ ____
ROOT
ATOM      1  N1  UNL     1     160.100 157.376 165.771  0.00  0.00    +0.000 NA
ATOM      2  C1  UNL     1     160.147 156.261 164.996  0.00  0.00    +0.000 A 
ATOM      3  N2  UNL     1     161.143 155.779 164.207  0.00  0.00    +0.000 N 
ATOM      4  C2  UNL     1     160.696 154.641 163.649  0.00  0.00    +0.000 A 
ATOM      5  C3  UNL     1     159.412 154.389 164.082  0.00  0.00    +0.000 A 
ATOM      6  C4  UNL     1     159.062 155.414 164.935  0.00  0.00    +0.000 A 
ATOM      7  C5  UNL     1     157.908 155.696 165.665  0.00  0.00    +0.000 A 
ATOM      8  C6  UNL     1     157.891 156.827 166.436  0.00  0.00    +0.000 A 
ATOM      9  C7  UNL     1     158.978 157.653 166.483  0.00  0.00    +0.000 A 
ATOM     10  H1  UNL     1     162.090 156.215 164.058  0.00  0.00    +0.000 HD
ENDROOT
BRANCH   5  11
ATOM     11  C20 UNL     1     158.575 153.276 163.717  0.00  0.00    +0.000 A 
ATOM     12  C21 UNL     1     158.677 152.098 164.420  0.00  0.00    +0.000 A 
ATOM     13  C22 UNL     1     157.920 150.991 164.137  0.00  0.00    +0.000 A 
ATOM     14  C23 UNL     1     157.018 151.067 163.101  0.00  0.00    +0.000 A 
ATOM     15  N5  UNL     1     156.405 149.862 163.026  0.00  0.00    +0.000 N 
ATOM     16  C24 UNL     1     156.863 149.017 163.955  0.00  0.00    +0.000 A 
ATOM     17  C25 UNL     1     157.831 149.736 164.666  0.00  0.00    +0.000 A 
ATOM     18  C26 UNL     1     156.910 152.244 162.393  0.00  0.00    +0.000 A 
ATOM     19  C27 UNL     1     157.674 153.351 162.684  0.00  0.00    +0.000 A 
ATOM     20  H23 UNL     1     155.657 149.597 162.333  0.00  0.00    +0.000 HD
ENDBRANCH   5  11
BRANCH   8  21
ATOM     21  C8  UNL     1     156.677 157.131 167.208  0.00  0.00    +0.000 A 
ATOM     22  C9  UNL     1     156.717 156.883 168.562  0.00  0.00    +0.000 A 
ATOM     23  C10 UNL     1     155.599 157.154 169.315  0.00  0.00    +0.000 A 
ATOM     24  C11 UNL     1     154.460 157.667 168.701  0.00  0.00    +0.000 A 
ATOM     25  C18 UNL     1     154.423 157.915 167.346  0.00  0.00    +0.000 A 
ATOM     26  C19 UNL     1     155.558 157.639 166.587  0.00  0.00    +0.000 A 
BRANCH  24  27
ATOM     27  C12 UNL     1     153.240 157.959 169.498  0.00  0.00    +0.000 C 
BRANCH  27  28
ATOM     28  N3  UNL     1     152.804 159.323 169.400  0.00  0.00    +0.000 NA
ATOM     29  C13 UNL     1     153.591 160.157 170.257  0.00  0.00    +0.000 C 
ATOM     30  C14 UNL     1     152.953 160.163 171.627  0.00  0.00    +0.000 C 
ATOM     31  N4  UNL     1     151.691 160.864 171.570  0.00  0.00    +0.000 NA
ATOM     32  C15 UNL     1     151.942 162.286 171.713  0.00  0.00    +0.000 C 
ATOM     33  C16 UNL     1     150.973 160.663 170.338  0.00  0.00    +0.000 C 
ATOM     34  C17 UNL     1     151.402 159.412 169.610  0.00  0.00    +0.000 C 
ENDBRANCH  27  28
ENDBRANCH  24  27
ENDBRANCH   8  21
TORSDOF 4
ENDMDL
MODEL 3
REMARK VINA RESULT:      -7.1      6.946      9.129
REMARK  Name = ./3D_structures\o33_MMV1580482_3D.pdb
REMARK  5 active torsions:
REMARK  status: ('A' for Active; 'I' for Inactive)
REMARK    1  A    between atoms: C3_5  and  C20_24
REMARK    2  A    between atoms: C6_8  and  C8_10
REMARK    3  A    between atoms: C11_13  and  C12_14
REMARK    4  A    between atoms: C12_14  and  N3_15
REMARK    5  A    between atoms: N4_18  and  C15_19
REMARK                            x       y       z     vdW  Elec       q    Type
REMARK                         _______ _______ _______ _____ _____    ______ ____
ROOT
ATOM      1  N1  UNL     1     155.302 163.586 163.473  0.00  0.00    +0.000 NA
ATOM      2  C1  UNL     1     155.848 162.447 163.972  0.00  0.00    +0.000 A 
ATOM      3  N2  UNL     1     156.996 161.800 163.639  0.00  0.00    +0.000 N 
ATOM      4  C2  UNL     1     157.090 160.717 164.430  0.00  0.00    +0.000 A 
ATOM      5  C3  UNL     1     156.001 160.668 165.273  0.00  0.00    +0.000 A 
ATOM      6  C4  UNL     1     155.214 161.762 164.986  0.00  0.00    +0.000 A 
ATOM      7  C5  UNL     1     154.007 162.232 165.504  0.00  0.00    +0.000 A 
ATOM      8  C6  UNL     1     153.482 163.382 164.979  0.00  0.00    +0.000 A 
ATOM      9  C7  UNL     1     154.129 164.046 163.975  0.00  0.00    +0.000 A 
ATOM     10  H1  UNL     1     157.687 162.092 162.899  0.00  0.00    +0.000 HD
ENDROOT
BRANCH   5  11
ATOM     11  C20 UNL     1     155.719 159.667 166.269  0.00  0.00    +0.000 A 
ATOM     12  C21 UNL     1     156.403 159.692 167.463  0.00  0.00    +0.000 A 
ATOM     13  C22 UNL     1     156.197 158.776 168.461  0.00  0.00    +0.000 A 
ATOM     14  C23 UNL     1     155.262 157.789 168.255  0.00  0.00    +0.000 A 
ATOM     15  N5  UNL     1     155.247 157.024 169.373  0.00  0.00    +0.000 N 
ATOM     16  C24 UNL     1     156.120 157.466 170.284  0.00  0.00    +0.000 A 
ATOM     17  C25 UNL     1     156.728 158.584 169.704  0.00  0.00    +0.000 A 
ATOM     18  C26 UNL     1     154.572 157.758 167.064  0.00  0.00    +0.000 A 
ATOM     19  C27 UNL     1     154.785 158.681 166.065  0.00  0.00    +0.000 A 
ATOM     20  H23 UNL     1     154.633 156.183 169.532  0.00  0.00    +0.000 HD
ENDBRANCH   5  11
BRANCH   8  21
ATOM     21  C8  UNL     1     152.211 163.883 165.520  0.00  0.00    +0.000 A 
ATOM     22  C9  UNL     1     151.683 163.216 166.603  0.00  0.00    +0.000 A 
ATOM     23  C10 UNL     1     150.494 163.657 167.134  0.00  0.00    +0.000 A 
ATOM     24  C11 UNL     1     149.852 164.755 166.572  0.00  0.00    +0.000 A 
ATOM     25  C18 UNL     1     150.382 165.422 165.488  0.00  0.00    +0.000 A 
ATOM     26  C19 UNL     1     151.586 164.973 164.954  0.00  0.00    +0.000 A 
BRANCH  24  27
ATOM     27  C12 UNL     1     148.562 165.241 167.128  0.00  0.00    +0.000 C 
BRANCH  27  28
ATOM     28  N3  UNL     1     147.681 164.186 167.541  0.00  0.00    +0.000 NA
ATOM     29  C13 UNL     1     146.680 163.957 166.545  0.00  0.00    +0.000 C 
ATOM     30  C14 UNL     1     145.520 164.886 166.816  0.00  0.00    +0.000 C 
ATOM     31  N4  UNL     1     144.856 164.487 168.035  0.00  0.00    +0.000 NA
ATOM     32  C15 UNL     1     143.903 163.438 167.723  0.00  0.00    +0.000 C 
ATOM     33  C16 UNL     1     145.751 163.985 169.045  0.00  0.00    +0.000 C 
ATOM     34  C17 UNL     1     147.174 164.445 168.843  0.00  0.00    +0.000 C 
ENDBRANCH  27  28
ENDBRANCH  24  27
ENDBRANCH   8  21
TORSDOF 4
ENDMDL
MODEL 4
REMARK VINA RESULT:      -7.0      3.819      7.128
REMARK  Name = ./3D_structures\o33_MMV1580482_3D.pdb
REMARK  5 active torsions:
REMARK  status: ('A' for Active; 'I' for Inactive)
REMARK    1  A    between atoms: C3_5  and  C20_24
REMARK    2  A    between atoms: C6_8  and  C8_10
REMARK    3  A    between atoms: C11_13  and  C12_14
REMARK    4  A    between atoms: C12_14  and  N3_15
REMARK    5  A    between atoms: N4_18  and  C15_19
REMARK                            x       y       z     vdW  Elec       q    Type
REMARK                         _______ _______ _______ _____ _____    ______ ____
ROOT
ATOM      1  N1  UNL     1     160.676 157.386 165.019  0.00  0.00    +0.000 NA
ATOM      2  C1  UNL     1     161.935 157.779 165.343  0.00  0.00    +0.000 A 
ATOM      3  N2  UNL     1     163.077 157.773 164.606  0.00  0.00    +0.000 N 
ATOM      4  C2  UNL     1     164.058 158.264 165.383  0.00  0.00    +0.000 A 
ATOM      5  C3  UNL     1     163.546 158.588 166.620  0.00  0.00    +0.000 A 
ATOM      6  C4  UNL     1     162.202 158.281 166.598  0.00  0.00    +0.000 A 
ATOM      7  C5  UNL     1     161.183 158.389 167.543  0.00  0.00    +0.000 A 
ATOM      8  C6  UNL     1     159.924 157.985 167.187  0.00  0.00    +0.000 A 
ATOM      9  C7  UNL     1     159.682 157.490 165.936  0.00  0.00    +0.000 A 
ATOM     10  H1  UNL     1     163.177 157.444 163.610  0.00  0.00    +0.000 HD
ENDROOT
BRANCH   5  11
ATOM     11  C20 UNL     1     164.265 159.137 167.741  0.00  0.00    +0.000 A 
ATOM     12  C21 UNL     1     164.115 160.469 168.049  0.00  0.00    +0.000 A 
ATOM     13  C22 UNL     1     164.764 161.071 169.096  0.00  0.00    +0.000 A 
ATOM     14  C23 UNL     1     165.601 160.302 169.871  0.00  0.00    +0.000 A 
ATOM     15  N5  UNL     1     166.112 161.117 170.824  0.00  0.00    +0.000 N 
ATOM     16  C24 UNL     1     165.650 162.366 170.703  0.00  0.00    +0.000 A 
ATOM     17  C25 UNL     1     164.789 162.339 169.601  0.00  0.00    +0.000 A 
ATOM     18  C26 UNL     1     165.754 158.967 169.569  0.00  0.00    +0.000 A 
ATOM     19  C27 UNL     1     165.100 158.370 168.515  0.00  0.00    +0.000 A 
ATOM     20  H23 UNL     1     166.789 160.830 171.578  0.00  0.00    +0.000 HD
ENDBRANCH   5  11
BRANCH   8  21
ATOM     21  C8  UNL     1     158.845 158.095 168.178  0.00  0.00    +0.000 A 
ATOM     22  C9  UNL     1     159.147 158.722 169.367  0.00  0.00    +0.000 A 
ATOM     23  C10 UNL     1     158.162 158.841 170.319  0.00  0.00    +0.000 A 
ATOM     24  C11 UNL     1     156.892 158.331 170.066  0.00  0.00    +0.000 A 
ATOM     25  C18 UNL     1     156.591 157.705 168.875  0.00  0.00    +0.000 A 
ATOM     26  C19 UNL     1     157.592 157.587 167.914  0.00  0.00    +0.000 A 
BRANCH  24  27
ATOM     27  C12 UNL     1     155.816 158.444 171.085  0.00  0.00    +0.000 C 
BRANCH  27  28
ATOM     28  N3  UNL     1     155.289 159.773 171.217  0.00  0.00    +0.000 NA
ATOM     29  C13 UNL     1     155.751 160.370 172.433  0.00  0.00    +0.000 C 
ATOM     30  C14 UNL     1     154.793 159.995 173.539  0.00  0.00    +0.000 C 
ATOM     31  N4  UNL     1     153.523 160.650 173.323  0.00  0.00    +0.000 NA
ATOM     32  C15 UNL     1     153.591 161.989 173.877  0.00  0.00    +0.000 C 
ATOM     33  C16 UNL     1     153.160 160.764 171.934  0.00  0.00    +0.000 C 
ATOM     34  C17 UNL     1     153.876 159.764 171.060  0.00  0.00    +0.000 C 
ENDBRANCH  27  28
ENDBRANCH  24  27
ENDBRANCH   8  21
TORSDOF 4
ENDMDL
MODEL 5
REMARK VINA RESULT:      -7.0      2.653     10.147
REMARK  Name = ./3D_structures\o33_MMV1580482_3D.pdb
REMARK  5 active torsions:
REMARK  status: ('A' for Active; 'I' for Inactive)
REMARK    1  A    between atoms: C3_5  and  C20_24
REMARK    2  A    between atoms: C6_8  and  C8_10
REMARK    3  A    between atoms: C11_13  and  C12_14
REMARK    4  A    between atoms: C12_14  and  N3_15
REMARK    5  A    between atoms: N4_18  and  C15_19
REMARK                            x       y       z     vdW  Elec       q    Type
REMARK                         _______ _______ _______ _____ _____    ______ ____
ROOT
ATOM      1  N1  UNL     1     157.512 158.808 171.681  0.00  0.00    +0.000 NA
ATOM      2  C1  UNL     1     156.241 159.257 171.847  0.00  0.00    +0.000 A 
ATOM      3  N2  UNL     1     155.633 159.793 172.938  0.00  0.00    +0.000 N 
ATOM      4  C2  UNL     1     154.366 160.080 172.590  0.00  0.00    +0.000 A 
ATOM      5  C3  UNL     1     154.161 159.730 171.273  0.00  0.00    +0.000 A 
ATOM      6  C4  UNL     1     155.346 159.209 170.801  0.00  0.00    +0.000 A 
ATOM      7  C5  UNL     1     155.738 158.696 169.565  0.00  0.00    +0.000 A 
ATOM      8  C6  UNL     1     157.026 158.250 169.428  0.00  0.00    +0.000 A 
ATOM      9  C7  UNL     1     157.896 158.309 170.479  0.00  0.00    +0.000 A 
ATOM     10  H1  UNL     1     156.070 159.955 173.883  0.00  0.00    +0.000 HD
ENDROOT
BRANCH   5  11
ATOM     11  C20 UNL     1     152.943 159.868 170.518  0.00  0.00    +0.000 A 
ATOM     12  C21 UNL     1     152.752 160.990 169.746  0.00  0.00    +0.000 A 
ATOM     13  C22 UNL     1     151.622 161.200 168.999  0.00  0.00    +0.000 A 
ATOM     14  C23 UNL     1     150.637 160.241 169.026  0.00  0.00    +0.000 A 
ATOM     15  N5  UNL     1     149.642 160.679 168.218  0.00  0.00    +0.000 N 
ATOM     16  C24 UNL     1     149.934 161.865 167.675  0.00  0.00    +0.000 A 
ATOM     17  C25 UNL     1     151.198 162.200 168.172  0.00  0.00    +0.000 A 
ATOM     18  C26 UNL     1     150.821 159.114 169.796  0.00  0.00    +0.000 A 
ATOM     19  C27 UNL     1     151.959 158.910 170.544  0.00  0.00    +0.000 A 
ATOM     20  H23 UNL     1     148.741 160.168 168.024  0.00  0.00    +0.000 HD
ENDBRANCH   5  11
BRANCH   8  21
ATOM     21  C8  UNL     1     157.445 157.708 168.128  0.00  0.00    +0.000 A 
ATOM     22  C9  UNL     1     156.526 156.947 167.439  0.00  0.00    +0.000 A 
ATOM     23  C10 UNL     1     156.886 156.423 166.220  0.00  0.00    +0.000 A 
ATOM     24  C11 UNL     1     158.158 156.667 165.711  0.00  0.00    +0.000 A 
ATOM     25  C18 UNL     1     159.076 157.429 166.402  0.00  0.00    +0.000 A 
ATOM     26  C19 UNL     1     158.707 157.958 167.636  0.00  0.00    +0.000 A 
BRANCH  24  27
ATOM     27  C12 UNL     1     158.567 156.103 164.398  0.00  0.00    +0.000 C 
BRANCH  27  28
ATOM     28  N3  UNL     1     157.998 154.813 164.126  0.00  0.00    +0.000 NA
ATOM     29  C13 UNL     1     158.851 153.780 164.630  0.00  0.00    +0.000 C 
ATOM     30  C14 UNL     1     159.865 153.440 163.563  0.00  0.00    +0.000 C 
ATOM     31  N4  UNL     1     159.202 152.794 162.454  0.00  0.00    +0.000 NA
ATOM     32  C15 UNL     1     159.079 151.379 162.745  0.00  0.00    +0.000 C 
ATOM     33  C16 UNL     1     157.882 153.308 162.190  0.00  0.00    +0.000 C 
ATOM     34  C17 UNL     1     157.674 154.694 162.748  0.00  0.00    +0.000 C 
ENDBRANCH  27  28
ENDBRANCH  24  27
ENDBRANCH   8  21
TORSDOF 4
ENDMDL
MODEL 6
REMARK VINA RESULT:      -7.0      7.597     12.828
REMARK  Name = ./3D_structures\o33_MMV1580482_3D.pdb
REMARK  5 active torsions:
REMARK  status: ('A' for Active; 'I' for Inactive)
REMARK    1  A    between atoms: C3_5  and  C20_24
REMARK    2  A    between atoms: C6_8  and  C8_10
REMARK    3  A    between atoms: C11_13  and  C12_14
REMARK    4  A    between atoms: C12_14  and  N3_15
REMARK    5  A    between atoms: N4_18  and  C15_19
REMARK                            x       y       z     vdW  Elec       q    Type
REMARK                         _______ _______ _______ _____ _____    ______ ____
ROOT
ATOM      1  N1  UNL     1     149.162 164.677 170.570  0.00  0.00    +0.000 NA
ATOM      2  C1  UNL     1     147.923 164.620 170.018  0.00  0.00    +0.000 A 
ATOM      3  N2  UNL     1     146.826 165.392 170.235  0.00  0.00    +0.000 N 
ATOM      4  C2  UNL     1     145.847 164.931 169.438  0.00  0.00    +0.000 A 
ATOM      5  C3  UNL     1     146.315 163.861 168.707  0.00  0.00    +0.000 A 
ATOM      6  C4  UNL     1     147.629 163.663 169.072  0.00  0.00    +0.000 A 
ATOM      7  C5  UNL     1     148.601 162.745 168.676  0.00  0.00    +0.000 A 
ATOM      8  C6  UNL     1     149.841 162.827 169.252  0.00  0.00    +0.000 A 
ATOM      9  C7  UNL     1     150.110 163.785 170.187  0.00  0.00    +0.000 A 
ATOM     10  H1  UNL     1     146.754 166.204 170.904  0.00  0.00    +0.000 HD
ENDROOT
BRANCH   5  11
ATOM     11  C20 UNL     1     145.583 163.081 167.743  0.00  0.00    +0.000 A 
ATOM     12  C21 UNL     1     145.499 163.524 166.443  0.00  0.00    +0.000 A 
ATOM     13  C22 UNL     1     144.820 162.843 165.465  0.00  0.00    +0.000 A 
ATOM     14  C23 UNL     1     144.198 161.665 165.805  0.00  0.00    +0.000 A 
ATOM     15  N5  UNL     1     143.608 161.195 164.680  0.00  0.00    +0.000 N 
ATOM     16  C24 UNL     1     143.817 162.006 163.638  0.00  0.00    +0.000 A 
ATOM     17  C25 UNL     1     144.591 163.060 164.137  0.00  0.00    +0.000 A 
ATOM     18  C26 UNL     1     144.279 161.215 167.104  0.00  0.00    +0.000 A 
ATOM     19  C27 UNL     1     144.962 161.905 168.081  0.00  0.00    +0.000 A 
ATOM     20  H23 UNL     1     143.049 160.305 164.607  0.00  0.00    +0.000 HD
ENDBRANCH   5  11
BRANCH   8  21
ATOM     21  C8  UNL     1     150.871 161.862 168.840  0.00  0.00    +0.000 A 
ATOM     22  C9  UNL     1     150.942 160.681 169.546  0.00  0.00    +0.000 A 
ATOM     23  C10 UNL     1     151.894 159.756 169.189  0.00  0.00    +0.000 A 
ATOM     24  C11 UNL     1     152.760 160.027 168.133  0.00  0.00    +0.000 A 
ATOM     25  C18 UNL     1     152.685 161.209 167.427  0.00  0.00    +0.000 A 
ATOM     26  C19 UNL     1     151.719 162.143 167.793  0.00  0.00    +0.000 A 
BRANCH  24  27
ATOM     27  C12 UNL     1     153.800 159.042 167.738  0.00  0.00    +0.000 C 
BRANCH  27  28
ATOM     28  N3  UNL     1     154.610 158.592 168.834  0.00  0.00    +0.000 NA
ATOM     29  C13 UNL     1     155.620 159.561 169.132  0.00  0.00    +0.000 C 
ATOM     30  C14 UNL     1     156.823 159.273 168.264  0.00  0.00    +0.000 C 
ATOM     31  N4  UNL     1     157.436 158.033 168.681  0.00  0.00    +0.000 NA
ATOM     32  C15 UNL     1     158.336 158.307 169.785  0.00  0.00    +0.000 C 
ATOM     33  C16 UNL     1     156.490 157.039 169.118  0.00  0.00    +0.000 C 
ATOM     34  C17 UNL     1     155.100 157.282 168.584  0.00  0.00    +0.000 C 
ENDBRANCH  27  28
ENDBRANCH  24  27
ENDBRANCH   8  21
TORSDOF 4
ENDMDL
MODEL 7
REMARK VINA RESULT:      -6.8      2.289     10.218
REMARK  Name = ./3D_structures\o33_MMV1580482_3D.pdb
REMARK  5 active torsions:
REMARK  status: ('A' for Active; 'I' for Inactive)
REMARK    1  A    between atoms: C3_5  and  C20_24
REMARK    2  A    between atoms: C6_8  and  C8_10
REMARK    3  A    between atoms: C11_13  and  C12_14
REMARK    4  A    between atoms: C12_14  and  N3_15
REMARK    5  A    between atoms: N4_18  and  C15_19
REMARK                            x       y       z     vdW  Elec       q    Type
REMARK                         _______ _______ _______ _____ _____    ______ ____
ROOT
ATOM      1  N1  UNL     1     160.376 155.665 163.059  0.00  0.00    +0.000 NA
ATOM      2  C1  UNL     1     160.011 156.561 164.012  0.00  0.00    +0.000 A 
ATOM      3  N2  UNL     1     160.400 157.850 164.205  0.00  0.00    +0.000 N 
ATOM      4  C2  UNL     1     159.748 158.307 165.287  0.00  0.00    +0.000 A 
ATOM      5  C3  UNL     1     158.938 157.313 165.791  0.00  0.00    +0.000 A 
ATOM      6  C4  UNL     1     159.103 156.207 164.985  0.00  0.00    +0.000 A 
ATOM      7  C5  UNL     1     158.553 154.925 164.999  0.00  0.00    +0.000 A 
ATOM      8  C6  UNL     1     158.941 154.044 164.026  0.00  0.00    +0.000 A 
ATOM      9  C7  UNL     1     159.843 154.418 163.070  0.00  0.00    +0.000 A 
ATOM     10  H1  UNL     1     161.086 158.391 163.616  0.00  0.00    +0.000 HD
ENDROOT
BRANCH   5  11
ATOM     11  C20 UNL     1     158.079 157.393 166.944  0.00  0.00    +0.000 A 
ATOM     12  C21 UNL     1     158.565 157.939 168.109  0.00  0.00    +0.000 A 
ATOM     13  C22 UNL     1     157.816 158.051 169.251  0.00  0.00    +0.000 A 
ATOM     14  C23 UNL     1     156.519 157.594 169.225  0.00  0.00    +0.000 A 
ATOM     15  N5  UNL     1     156.001 157.815 170.457  0.00  0.00    +0.000 N 
ATOM     16  C24 UNL     1     156.894 158.388 171.271  0.00  0.00    +0.000 A 
ATOM     17  C25 UNL     1     158.053 158.539 170.503  0.00  0.00    +0.000 A 
ATOM     18  C26 UNL     1     156.025 157.047 168.062  0.00  0.00    +0.000 A 
ATOM     19  C27 UNL     1     156.784 156.938 166.919  0.00  0.00    +0.000 A 
ATOM     20  H23 UNL     1     155.021 157.577 170.762  0.00  0.00    +0.000 HD
ENDBRANCH   5  11
BRANCH   8  21
ATOM     21  C8  UNL     1     158.367 152.691 164.035  0.00  0.00    +0.000 A 
ATOM     22  C9  UNL     1     159.238 151.641 164.225  0.00  0.00    +0.000 A 
ATOM     23  C10 UNL     1     158.734 150.361 164.238  0.00  0.00    +0.000 A 
ATOM     24  C11 UNL     1     157.370 150.153 164.059  0.00  0.00    +0.000 A 
ATOM     25  C18 UNL     1     156.500 151.206 163.870  0.00  0.00    +0.000 A 
ATOM     26  C19 UNL     1     157.014 152.500 163.858  0.00  0.00    +0.000 A 
BRANCH  24  27
ATOM     27  C12 UNL     1     156.809 148.777 164.063  0.00  0.00    +0.000 C 
BRANCH  27  28
ATOM     28  N3  UNL     1     157.373 147.925 163.055  0.00  0.00    +0.000 NA
ATOM     29  C13 UNL     1     156.461 147.782 161.962  0.00  0.00    +0.000 C 
ATOM     30  C14 UNL     1     155.534 146.628 162.267  0.00  0.00    +0.000 C 
ATOM     31  N4  UNL     1     156.276 145.389 162.230  0.00  0.00    +0.000 NA
ATOM     32  C15 UNL     1     156.346 144.929 160.855  0.00  0.00    +0.000 C 
ATOM     33  C16 UNL     1     157.622 145.505 162.726  0.00  0.00    +0.000 C 
ATOM     34  C17 UNL     1     157.810 146.701 163.628  0.00  0.00    +0.000 C 
ENDBRANCH  27  28
ENDBRANCH  24  27
ENDBRANCH   8  21
TORSDOF 4
ENDMDL
MODEL 8
REMARK VINA RESULT:      -6.8      4.162      7.444
REMARK  Name = ./3D_structures\o33_MMV1580482_3D.pdb
REMARK  5 active torsions:
REMARK  status: ('A' for Active; 'I' for Inactive)
REMARK    1  A    between atoms: C3_5  and  C20_24
REMARK    2  A    between atoms: C6_8  and  C8_10
REMARK    3  A    between atoms: C11_13  and  C12_14
REMARK    4  A    between atoms: C12_14  and  N3_15
REMARK    5  A    between atoms: N4_18  and  C15_19
REMARK                            x       y       z     vdW  Elec       q    Type
REMARK                         _______ _______ _______ _____ _____    ______ ____
ROOT
ATOM      1  N1  UNL     1     161.315 157.218 165.126  0.00  0.00    +0.000 NA
ATOM      2  C1  UNL     1     162.431 157.909 165.475  0.00  0.00    +0.000 A 
ATOM      3  N2  UNL     1     163.634 158.012 164.851  0.00  0.00    +0.000 N 
ATOM      4  C2  UNL     1     164.406 158.818 165.600  0.00  0.00    +0.000 A 
ATOM      5  C3  UNL     1     163.698 159.235 166.706  0.00  0.00    +0.000 A 
ATOM      6  C4  UNL     1     162.447 158.661 166.629  0.00  0.00    +0.000 A 
ATOM      7  C5  UNL     1     161.319 158.717 167.447  0.00  0.00    +0.000 A 
ATOM      8  C6  UNL     1     160.210 158.009 167.069  0.00  0.00    +0.000 A 
ATOM      9  C7  UNL     1     160.216 157.270 165.920  0.00  0.00    +0.000 A 
ATOM     10  H1  UNL     1     163.913 157.546 163.948  0.00  0.00    +0.000 HD
ENDROOT
BRANCH   5  11
ATOM     11  C20 UNL     1     164.162 160.102 167.758  0.00  0.00    +0.000 A 
ATOM     12  C21 UNL     1     165.009 159.601 168.719  0.00  0.00    +0.000 A 
ATOM     13  C22 UNL     1     165.495 160.356 169.754  0.00  0.00    +0.000 A 
ATOM     14  C23 UNL     1     165.115 161.676 169.831  0.00  0.00    +0.000 A 
ATOM     15  N5  UNL     1     165.720 162.196 170.925  0.00  0.00    +0.000 N 
ATOM     16  C24 UNL     1     166.467 161.283 171.555  0.00  0.00    +0.000 A 
ATOM     17  C25 UNL     1     166.325 160.108 170.809  0.00  0.00    +0.000 A 
ATOM     18  C26 UNL     1     164.267 162.185 168.872  0.00  0.00    +0.000 A 
ATOM     19  C27 UNL     1     163.783 161.420 167.835  0.00  0.00    +0.000 A 
ATOM     20  H23 UNL     1     165.632 163.190 171.261  0.00  0.00    +0.000 HD
ENDBRANCH   5  11
BRANCH   8  21
ATOM     21  C8  UNL     1     159.018 158.063 167.926  0.00  0.00    +0.000 A 
ATOM     22  C9  UNL     1     157.824 157.664 167.367  0.00  0.00    +0.000 A 
ATOM     23  C10 UNL     1     156.688 157.703 168.141  0.00  0.00    +0.000 A 
ATOM     24  C11 UNL     1     156.764 158.141 169.459  0.00  0.00    +0.000 A 
ATOM     25  C18 UNL     1     157.960 158.539 170.017  0.00  0.00    +0.000 A 
ATOM     26  C19 UNL     1     159.108 158.498 169.230  0.00  0.00    +0.000 A 
BRANCH  24  27
ATOM     27  C12 UNL     1     155.545 158.197 170.308  0.00  0.00    +0.000 C 
BRANCH  27  28
ATOM     28  N3  UNL     1     154.410 158.773 169.645  0.00  0.00    +0.000 NA
ATOM     29  C13 UNL     1     154.148 160.082 170.161  0.00  0.00    +0.000 C 
ATOM     30  C14 UNL     1     153.242 159.945 171.362  0.00  0.00    +0.000 C 
ATOM     31  N4  UNL     1     151.935 159.501 170.935  0.00  0.00    +0.000 NA
ATOM     32  C15 UNL     1     151.163 160.658 170.523  0.00  0.00    +0.000 C 
ATOM     33  C16 UNL     1     151.970 158.577 169.831  0.00  0.00    +0.000 C 
ATOM     34  C17 UNL     1     153.303 157.883 169.693  0.00  0.00    +0.000 C 
ENDBRANCH  27  28
ENDBRANCH  24  27
ENDBRANCH   8  21
TORSDOF 4
ENDMDL
MODEL 9
REMARK VINA RESULT:      -6.8      1.307      1.940
REMARK  Name = ./3D_structures\o33_MMV1580482_3D.pdb
REMARK  5 active torsions:
REMARK  status: ('A' for Active; 'I' for Inactive)
REMARK    1  A    between atoms: C3_5  and  C20_24
REMARK    2  A    between atoms: C6_8  and  C8_10
REMARK    3  A    between atoms: C11_13  and  C12_14
REMARK    4  A    between atoms: C12_14  and  N3_15
REMARK    5  A    between atoms: N4_18  and  C15_19
REMARK                            x       y       z     vdW  Elec       q    Type
REMARK                         _______ _______ _______ _____ _____    ______ ____
ROOT
ATOM      1  N1  UNL     1     161.709 158.711 166.423  0.00  0.00    +0.000 NA
ATOM      2  C1  UNL     1     161.484 157.880 165.372  0.00  0.00    +0.000 A 
ATOM      3  N2  UNL     1     162.260 157.593 164.295  0.00  0.00    +0.000 N 
ATOM      4  C2  UNL     1     161.588 156.707 163.540  0.00  0.00    +0.000 A 
ATOM      5  C3  UNL     1     160.377 156.423 164.134  0.00  0.00    +0.000 A 
ATOM      6  C4  UNL     1     160.309 157.164 165.294  0.00  0.00    +0.000 A 
ATOM      7  C5  UNL     1     159.343 157.289 166.292  0.00  0.00    +0.000 A 
ATOM      8  C6  UNL     1     159.598 158.135 167.338  0.00  0.00    +0.000 A 
ATOM      9  C7  UNL     1     160.771 158.834 167.395  0.00  0.00    +0.000 A 
ATOM     10  H1  UNL     1     163.214 157.990 164.086  0.00  0.00    +0.000 HD
ENDROOT
BRANCH   5  11
ATOM     11  C20 UNL     1     159.359 155.528 163.647  0.00  0.00    +0.000 A 
ATOM     12  C21 UNL     1     159.219 154.288 164.226  0.00  0.00    +0.000 A 
ATOM     13  C22 UNL     1     158.279 153.377 163.821  0.00  0.00    +0.000 A 
ATOM     14  C23 UNL     1     157.439 153.724 162.789  0.00  0.00    +0.000 A 
ATOM     15  N5  UNL     1     156.614 152.669 162.583  0.00  0.00    +0.000 N 
ATOM     16  C24 UNL     1     156.879 151.665 163.425  0.00  0.00    +0.000 A 
ATOM     17  C25 UNL     1     157.942 152.115 164.217  0.00  0.00    +0.000 A 
ATOM     18  C26 UNL     1     157.572 154.965 162.205  0.00  0.00    +0.000 A 
ATOM     19  C27 UNL     1     158.520 155.874 162.617  0.00  0.00    +0.000 A 
ATOM     20  H23 UNL     1     155.852 152.620 161.858  0.00  0.00    +0.000 HD
ENDBRANCH   5  11
BRANCH   8  21
ATOM     21  C8  UNL     1     158.584 158.272 168.393  0.00  0.00    +0.000 A 
ATOM     22  C9  UNL     1     158.850 159.166 169.406  0.00  0.00    +0.000 A 
ATOM     23  C10 UNL     1     157.923 159.319 170.410  0.00  0.00    +0.000 A 
ATOM     24  C11 UNL     1     156.748 158.574 170.386  0.00  0.00    +0.000 A 
ATOM     25  C18 UNL     1     156.484 157.680 169.370  0.00  0.00    +0.000 A 
ATOM     26  C19 UNL     1     157.425 157.529 168.355  0.00  0.00    +0.000 A 
BRANCH  24  27
ATOM     27  C12 UNL     1     155.738 158.720 171.466  0.00  0.00    +0.000 C 
BRANCH  27  28
ATOM     28  N3  UNL     1     155.055 159.983 171.446  0.00  0.00    +0.000 NA
ATOM     29  C13 UNL     1     155.269 160.681 172.677  0.00  0.00    +0.000 C 
ATOM     30  C14 UNL     1     154.208 160.244 173.660  0.00  0.00    +0.000 C 
ATOM     31  N4  UNL     1     152.919 160.736 173.232  0.00  0.00    +0.000 NA
ATOM     32  C15 UNL     1     152.759 162.096 173.711  0.00  0.00    +0.000 C 
ATOM     33  C16 UNL     1     152.750 160.748 171.802  0.00  0.00    +0.000 C 
ATOM     34  C17 UNL     1     153.690 159.802 171.096  0.00  0.00    +0.000 C 
ENDBRANCH  27  28
ENDBRANCH  24  27
ENDBRANCH   8  21
TORSDOF 4
ENDMDL
