MODEL 1
REMARK VINA RESULT:      -4.5      0.000      0.000
REMARK  Name = ./3D_structures\o35_MMV1580496_3D.pdb
REMARK  5 active torsions:
REMARK  status: ('A' for Active; 'I' for Inactive)
REMARK    1  A    between atoms: C1_2  and  N1_3
REMARK    2  A    between atoms: C1_2  and  N5_13
REMARK    3  A    between atoms: N1_3  and  N2_4
REMARK    4  A    between atoms: C2_5  and  C3_6
REMARK    5  A    between atoms: C7_11  and  N4_12
REMARK                            x       y       z     vdW  Elec       q    Type
REMARK                         _______ _______ _______ _____ _____    ______ ____
ROOT
ATOM      1  N2  UNL     1     149.275 174.451 164.426  0.00  0.00    +0.000 NA
ATOM      2  C2  UNL     1     148.259 175.147 164.735  0.00  0.00    +0.000 C 
ENDROOT
BRANCH   2   3
ATOM      3  C3  UNL     1     147.054 174.553 165.335  0.00  0.00    +0.000 A 
ATOM      4  N3  UNL     1     146.895 174.493 166.673  0.00  0.00    +0.000 NA
ATOM      5  C4  UNL     1     145.791 173.949 167.241  0.00  0.00    +0.000 A 
ATOM      6  C5  UNL     1     144.775 173.428 166.463  0.00  0.00    +0.000 A 
ATOM      7  C6  UNL     1     144.918 173.480 165.094  0.00  0.00    +0.000 A 
ATOM      8  C7  UNL     1     146.050 174.038 164.552  0.00  0.00    +0.000 A 
BRANCH   8   9
ATOM      9  N4  UNL     1     146.207 174.095 163.139  0.00  0.00    +0.000 N 
ATOM     10  H6  UNL     1     147.140 174.330 162.744  0.00  0.00    +0.000 HD
ATOM     11  H7  UNL     1     145.353 173.895 162.573  0.00  0.00    +0.000 HD
ENDBRANCH   8   9
ENDBRANCH   2   3
BRANCH   1  12
ATOM     12  N1  UNL     1     150.385 175.071 163.862  0.00  0.00    +0.000 N 
ATOM     13  H1  UNL     1     150.547 176.072 164.044  0.00  0.00    +0.000 HD
BRANCH  12  15
ATOM     14  S1  UNL     1     152.811 174.727 162.796  0.00  0.00    +0.000 S 
ATOM     15  C1  UNL     1     151.256 174.302 163.056  0.00  0.00    +0.000 C 
BRANCH  15  16
ATOM     16  N5  UNL     1     150.735 173.115 162.456  0.00  0.00    +0.000 N 
ATOM     17  H8  UNL     1     150.049 172.497 162.953  0.00  0.00    +0.000 HD
ATOM     18  H9  UNL     1     151.074 172.895 161.493  0.00  0.00    +0.000 HD
ENDBRANCH  15  16
ENDBRANCH  12  15
ENDBRANCH   1  12
TORSDOF 5
ENDMDL
MODEL 2
REMARK VINA RESULT:      -4.5      2.714      5.528
REMARK  Name = ./3D_structures\o35_MMV1580496_3D.pdb
REMARK  5 active torsions:
REMARK  status: ('A' for Active; 'I' for Inactive)
REMARK    1  A    between atoms: C1_2  and  N1_3
REMARK    2  A    between atoms: C1_2  and  N5_13
REMARK    3  A    between atoms: N1_3  and  N2_4
REMARK    4  A    between atoms: C2_5  and  C3_6
REMARK    5  A    between atoms: C7_11  and  N4_12
REMARK                            x       y       z     vdW  Elec       q    Type
REMARK                         _______ _______ _______ _____ _____    ______ ____
ROOT
ATOM      1  N2  UNL     1     147.506 174.235 165.485  0.00  0.00    +0.000 NA
ATOM      2  C2  UNL     1     148.131 175.217 164.978  0.00  0.00    +0.000 C 
ENDROOT
BRANCH   2   3
ATOM      3  C3  UNL     1     149.183 175.039 163.965  0.00  0.00    +0.000 A 
ATOM      4  N3  UNL     1     150.489 175.129 164.290  0.00  0.00    +0.000 NA
ATOM      5  C4  UNL     1     151.471 174.967 163.369  0.00  0.00    +0.000 A 
ATOM      6  C5  UNL     1     151.168 174.702 162.047  0.00  0.00    +0.000 A 
ATOM      7  C6  UNL     1     149.840 174.606 161.695  0.00  0.00    +0.000 A 
ATOM      8  C7  UNL     1     148.871 174.776 162.654  0.00  0.00    +0.000 A 
BRANCH   8   9
ATOM      9  N4  UNL     1     147.496 174.679 162.299  0.00  0.00    +0.000 N 
ATOM     10  H6  UNL     1     147.203 173.957 161.610  0.00  0.00    +0.000 HD
ATOM     11  H7  UNL     1     146.853 175.356 162.765  0.00  0.00    +0.000 HD
ENDBRANCH   8   9
ENDBRANCH   2   3
BRANCH   1  12
ATOM     12  N1  UNL     1     146.520 174.469 166.438  0.00  0.00    +0.000 N 
ATOM     13  H1  UNL     1     146.694 175.160 167.182  0.00  0.00    +0.000 HD
BRANCH  12  15
ATOM     14  S1  UNL     1     145.115 172.476 165.344  0.00  0.00    +0.000 S 
ATOM     15  C1  UNL     1     145.308 173.746 166.352  0.00  0.00    +0.000 C 
BRANCH  15  16
ATOM     16  N5  UNL     1     144.225 174.159 167.188  0.00  0.00    +0.000 N 
ATOM     17  H8  UNL     1     143.349 174.581 166.795  0.00  0.00    +0.000 HD
ATOM     18  H9  UNL     1     144.352 174.016 168.215  0.00  0.00    +0.000 HD
ENDBRANCH  15  16
ENDBRANCH  12  15
ENDBRANCH   1  12
TORSDOF 5
ENDMDL
MODEL 3
REMARK VINA RESULT:      -4.1     11.175     11.971
REMARK  Name = ./3D_structures\o35_MMV1580496_3D.pdb
REMARK  5 active torsions:
REMARK  status: ('A' for Active; 'I' for Inactive)
REMARK    1  A    between atoms: C1_2  and  N1_3
REMARK    2  A    between atoms: C1_2  and  N5_13
REMARK    3  A    between atoms: N1_3  and  N2_4
REMARK    4  A    between atoms: C2_5  and  C3_6
REMARK    5  A    between atoms: C7_11  and  N4_12
REMARK                            x       y       z     vdW  Elec       q    Type
REMARK                         _______ _______ _______ _____ _____    ______ ____
ROOT
ATOM      1  N2  UNL     1     144.939 162.260 164.763  0.00  0.00    +0.000 NA
ATOM      2  C2  UNL     1     145.068 162.951 165.821  0.00  0.00    +0.000 C 
ENDROOT
BRANCH   2   3
ATOM      3  C3  UNL     1     145.227 164.412 165.788  0.00  0.00    +0.000 A 
ATOM      4  N3  UNL     1     146.449 164.983 165.776  0.00  0.00    +0.000 NA
ATOM      5  C4  UNL     1     146.613 166.329 165.746  0.00  0.00    +0.000 A 
ATOM      6  C5  UNL     1     145.523 167.177 165.728  0.00  0.00    +0.000 A 
ATOM      7  C6  UNL     1     144.266 166.614 165.740  0.00  0.00    +0.000 A 
ATOM      8  C7  UNL     1     144.136 165.247 165.771  0.00  0.00    +0.000 A 
BRANCH   8   9
ATOM      9  N4  UNL     1     142.842 164.656 165.784  0.00  0.00    +0.000 N 
ATOM     10  H6  UNL     1     142.485 164.204 164.918  0.00  0.00    +0.000 HD
ATOM     11  H7  UNL     1     142.319 164.715 166.685  0.00  0.00    +0.000 HD
ENDBRANCH   8   9
ENDBRANCH   2   3
BRANCH   1  12
ATOM     12  N1  UNL     1     144.791 160.880 164.860  0.00  0.00    +0.000 N 
ATOM     13  H1  UNL     1     144.782 160.440 165.791  0.00  0.00    +0.000 HD
BRANCH  12  15
ATOM     14  S1  UNL     1     143.233 159.970 162.888  0.00  0.00    +0.000 S 
ATOM     15  C1  UNL     1     144.658 160.126 163.670  0.00  0.00    +0.000 C 
BRANCH  15  16
ATOM     16  N5  UNL     1     145.826 159.487 163.152  0.00  0.00    +0.000 N 
ATOM     17  H8  UNL     1     146.708 159.403 163.712  0.00  0.00    +0.000 HD
ATOM     18  H9  UNL     1     145.752 159.105 162.182  0.00  0.00    +0.000 HD
ENDBRANCH  15  16
ENDBRANCH  12  15
ENDBRANCH   1  12
TORSDOF 5
ENDMDL
MODEL 4
REMARK VINA RESULT:      -4.1     10.079     11.121
REMARK  Name = ./3D_structures\o35_MMV1580496_3D.pdb
REMARK  5 active torsions:
REMARK  status: ('A' for Active; 'I' for Inactive)
REMARK    1  A    between atoms: C1_2  and  N1_3
REMARK    2  A    between atoms: C1_2  and  N5_13
REMARK    3  A    between atoms: N1_3  and  N2_4
REMARK    4  A    between atoms: C2_5  and  C3_6
REMARK    5  A    between atoms: C7_11  and  N4_12
REMARK                            x       y       z     vdW  Elec       q    Type
REMARK                         _______ _______ _______ _____ _____    ______ ____
ROOT
ATOM      1  N2  UNL     1     144.551 164.604 166.786  0.00  0.00    +0.000 NA
ATOM      2  C2  UNL     1     145.535 163.998 166.259  0.00  0.00    +0.000 C 
ENDROOT
BRANCH   2   3
ATOM      3  C3  UNL     1     146.929 164.363 166.556  0.00  0.00    +0.000 A 
ATOM      4  N3  UNL     1     147.745 163.521 167.223  0.00  0.00    +0.000 NA
ATOM      5  C4  UNL     1     149.032 163.842 167.505  0.00  0.00    +0.000 A 
ATOM      6  C5  UNL     1     149.563 165.057 167.116  0.00  0.00    +0.000 A 
ATOM      7  C6  UNL     1     148.745 165.930 166.433  0.00  0.00    +0.000 A 
ATOM      8  C7  UNL     1     147.446 165.574 166.165  0.00  0.00    +0.000 A 
BRANCH   8   9
ATOM      9  N4  UNL     1     146.594 166.470 165.460  0.00  0.00    +0.000 N 
ATOM     10  H6  UNL     1     146.162 167.264 165.975  0.00  0.00    +0.000 HD
ATOM     11  H7  UNL     1     146.452 166.267 164.447  0.00  0.00    +0.000 HD
ENDBRANCH   8   9
ENDBRANCH   2   3
BRANCH   1  12
ATOM     12  N1  UNL     1     143.254 164.212 166.466  0.00  0.00    +0.000 N 
ATOM     13  H1  UNL     1     142.794 163.486 167.034  0.00  0.00    +0.000 HD
BRANCH  12  15
ATOM     14  S1  UNL     1     142.088 163.979 164.072  0.00  0.00    +0.000 S 
ATOM     15  C1  UNL     1     142.611 164.827 165.366  0.00  0.00    +0.000 C 
BRANCH  15  16
ATOM     16  N5  UNL     1     142.422 166.242 165.411  0.00  0.00    +0.000 N 
ATOM     17  H8  UNL     1     142.078 166.783 164.581  0.00  0.00    +0.000 HD
ATOM     18  H9  UNL     1     142.645 166.711 166.317  0.00  0.00    +0.000 HD
ENDBRANCH  15  16
ENDBRANCH  12  15
ENDBRANCH   1  12
TORSDOF 5
ENDMDL
MODEL 5
REMARK VINA RESULT:      -4.0      8.416      8.842
REMARK  Name = ./3D_structures\o35_MMV1580496_3D.pdb
REMARK  5 active torsions:
REMARK  status: ('A' for Active; 'I' for Inactive)
REMARK    1  A    between atoms: C1_2  and  N1_3
REMARK    2  A    between atoms: C1_2  and  N5_13
REMARK    3  A    between atoms: N1_3  and  N2_4
REMARK    4  A    between atoms: C2_5  and  C3_6
REMARK    5  A    between atoms: C7_11  and  N4_12
REMARK                            x       y       z     vdW  Elec       q    Type
REMARK                         _______ _______ _______ _____ _____    ______ ____
ROOT
ATOM      1  N2  UNL     1     149.448 165.265 165.891  0.00  0.00    +0.000 NA
ATOM      2  C2  UNL     1     148.675 166.054 166.517  0.00  0.00    +0.000 C 
ENDROOT
BRANCH   2   3
ATOM      3  C3  UNL     1     147.231 166.117 166.243  0.00  0.00    +0.000 A 
ATOM      4  N3  UNL     1     146.653 167.249 165.792  0.00  0.00    +0.000 NA
ATOM      5  C4  UNL     1     145.324 167.323 165.535  0.00  0.00    +0.000 A 
ATOM      6  C5  UNL     1     144.501 166.231 165.727  0.00  0.00    +0.000 A 
ATOM      7  C6  UNL     1     145.072 165.065 166.187  0.00  0.00    +0.000 A 
ATOM      8  C7  UNL     1     146.421 165.024 166.438  0.00  0.00    +0.000 A 
BRANCH   8   9
ATOM      9  N4  UNL     1     147.020 163.824 166.914  0.00  0.00    +0.000 N 
ATOM     10  H6  UNL     1     148.057 163.766 166.971  0.00  0.00    +0.000 HD
ATOM     11  H7  UNL     1     146.364 163.057 167.181  0.00  0.00    +0.000 HD
ENDBRANCH   8   9
ENDBRANCH   2   3
BRANCH   1  12
ATOM     12  N1  UNL     1     150.806 165.251 166.197  0.00  0.00    +0.000 N 
ATOM     13  H1  UNL     1     151.101 165.052 167.164  0.00  0.00    +0.000 HD
BRANCH  12  15
ATOM     14  S1  UNL     1     152.403 164.322 164.265  0.00  0.00    +0.000 S 
ATOM     15  C1  UNL     1     151.737 165.512 165.165  0.00  0.00    +0.000 C 
BRANCH  15  16
ATOM     16  N5  UNL     1     152.094 166.873 164.918  0.00  0.00    +0.000 N 
ATOM     17  H8  UNL     1     153.094 167.188 164.885  0.00  0.00    +0.000 HD
ATOM     18  H9  UNL     1     151.304 167.540 164.771  0.00  0.00    +0.000 HD
ENDBRANCH  15  16
ENDBRANCH  12  15
ENDBRANCH   1  12
TORSDOF 5
ENDMDL
MODEL 6
REMARK VINA RESULT:      -4.0     10.460     11.161
REMARK  Name = ./3D_structures\o35_MMV1580496_3D.pdb
REMARK  5 active torsions:
REMARK  status: ('A' for Active; 'I' for Inactive)
REMARK    1  A    between atoms: C1_2  and  N1_3
REMARK    2  A    between atoms: C1_2  and  N5_13
REMARK    3  A    between atoms: N1_3  and  N2_4
REMARK    4  A    between atoms: C2_5  and  C3_6
REMARK    5  A    between atoms: C7_11  and  N4_12
REMARK                            x       y       z     vdW  Elec       q    Type
REMARK                         _______ _______ _______ _____ _____    ______ ____
ROOT
ATOM      1  N2  UNL     1     147.104 165.372 165.876  0.00  0.00    +0.000 NA
ATOM      2  C2  UNL     1     147.812 165.137 166.903  0.00  0.00    +0.000 C 
ENDROOT
BRANCH   2   3
ATOM      3  C3  UNL     1     148.276 163.783 167.241  0.00  0.00    +0.000 A 
ATOM      4  N3  UNL     1     149.588 163.470 167.231  0.00  0.00    +0.000 NA
ATOM      5  C4  UNL     1     150.031 162.226 167.540  0.00  0.00    +0.000 A 
ATOM      6  C5  UNL     1     149.148 161.220 167.879  0.00  0.00    +0.000 A 
ATOM      7  C6  UNL     1     147.803 161.519 167.895  0.00  0.00    +0.000 A 
ATOM      8  C7  UNL     1     147.388 162.789 167.577  0.00  0.00    +0.000 A 
BRANCH   8   9
ATOM      9  N4  UNL     1     146.001 163.108 167.590  0.00  0.00    +0.000 N 
ATOM     10  H6  UNL     1     145.569 163.441 168.476  0.00  0.00    +0.000 HD
ATOM     11  H7  UNL     1     145.492 162.983 166.688  0.00  0.00    +0.000 HD
ENDBRANCH   8   9
ENDBRANCH   2   3
BRANCH   1  12
ATOM     12  N1  UNL     1     146.696 166.676 165.609  0.00  0.00    +0.000 N 
ATOM     13  H1  UNL     1     147.406 167.390 165.392  0.00  0.00    +0.000 HD
BRANCH  12  15
ATOM     14  S1  UNL     1     144.168 165.816 165.727  0.00  0.00    +0.000 S 
ATOM     15  C1  UNL     1     145.314 166.977 165.647  0.00  0.00    +0.000 C 
BRANCH  15  16
ATOM     16  N5  UNL     1     144.930 168.352 165.612  0.00  0.00    +0.000 N 
ATOM     17  H8  UNL     1     144.253 168.758 166.302  0.00  0.00    +0.000 HD
ATOM     18  H9  UNL     1     145.363 168.935 164.860  0.00  0.00    +0.000 HD
ENDBRANCH  15  16
ENDBRANCH  12  15
ENDBRANCH   1  12
TORSDOF 5
ENDMDL
MODEL 7
REMARK VINA RESULT:      -4.0     11.641     12.416
REMARK  Name = ./3D_structures\o35_MMV1580496_3D.pdb
REMARK  5 active torsions:
REMARK  status: ('A' for Active; 'I' for Inactive)
REMARK    1  A    between atoms: C1_2  and  N1_3
REMARK    2  A    between atoms: C1_2  and  N5_13
REMARK    3  A    between atoms: N1_3  and  N2_4
REMARK    4  A    between atoms: C2_5  and  C3_6
REMARK    5  A    between atoms: C7_11  and  N4_12
REMARK                            x       y       z     vdW  Elec       q    Type
REMARK                         _______ _______ _______ _____ _____    ______ ____
ROOT
ATOM      1  N2  UNL     1     145.002 161.984 164.621  0.00  0.00    +0.000 NA
ATOM      2  C2  UNL     1     144.929 163.225 164.880  0.00  0.00    +0.000 C 
ENDROOT
BRANCH   2   3
ATOM      3  C3  UNL     1     145.213 163.764 166.218  0.00  0.00    +0.000 A 
ATOM      4  N3  UNL     1     144.818 163.116 167.333  0.00  0.00    +0.000 NA
ATOM      5  C4  UNL     1     145.071 163.600 168.573  0.00  0.00    +0.000 A 
ATOM      6  C5  UNL     1     145.753 164.789 168.746  0.00  0.00    +0.000 A 
ATOM      7  C6  UNL     1     146.165 165.467 167.621  0.00  0.00    +0.000 A 
ATOM      8  C7  UNL     1     145.891 164.948 166.379  0.00  0.00    +0.000 A 
BRANCH   8   9
ATOM      9  N4  UNL     1     146.314 165.642 165.210  0.00  0.00    +0.000 N 
ATOM     10  H6  UNL     1     146.980 166.435 165.307  0.00  0.00    +0.000 HD
ATOM     11  H7  UNL     1     145.917 165.303 164.306  0.00  0.00    +0.000 HD
ENDBRANCH   8   9
ENDBRANCH   2   3
BRANCH   1  12
ATOM     12  N1  UNL     1     144.722 161.535 163.334  0.00  0.00    +0.000 N 
ATOM     13  H1  UNL     1     144.559 162.224 162.586  0.00  0.00    +0.000 HD
BRANCH  12  15
ATOM     14  S1  UNL     1     143.269 159.357 162.795  0.00  0.00    +0.000 S 
ATOM     15  C1  UNL     1     144.669 160.142 163.097  0.00  0.00    +0.000 C 
BRANCH  15  16
ATOM     16  N5  UNL     1     145.898 159.414 163.129  0.00  0.00    +0.000 N 
ATOM     17  H8  UNL     1     146.153 158.788 163.930  0.00  0.00    +0.000 HD
ATOM     18  H9  UNL     1     146.531 159.538 162.307  0.00  0.00    +0.000 HD
ENDBRANCH  15  16
ENDBRANCH  12  15
ENDBRANCH   1  12
TORSDOF 5
ENDMDL
MODEL 8
REMARK VINA RESULT:      -3.9      1.001      2.013
REMARK  Name = ./3D_structures\o35_MMV1580496_3D.pdb
REMARK  5 active torsions:
REMARK  status: ('A' for Active; 'I' for Inactive)
REMARK    1  A    between atoms: C1_2  and  N1_3
REMARK    2  A    between atoms: C1_2  and  N5_13
REMARK    3  A    between atoms: N1_3  and  N2_4
REMARK    4  A    between atoms: C2_5  and  C3_6
REMARK    5  A    between atoms: C7_11  and  N4_12
REMARK                            x       y       z     vdW  Elec       q    Type
REMARK                         _______ _______ _______ _____ _____    ______ ____
ROOT
ATOM      1  N2  UNL     1     149.068 175.076 164.155  0.00  0.00    +0.000 NA
ATOM      2  C2  UNL     1     148.322 174.372 164.903  0.00  0.00    +0.000 C 
ENDROOT
BRANCH   2   3
ATOM      3  C3  UNL     1     146.863 174.555 164.950  0.00  0.00    +0.000 A 
ATOM      4  N3  UNL     1     146.159 174.852 163.839  0.00  0.00    +0.000 NA
ATOM      5  C4  UNL     1     144.814 175.024 163.865  0.00  0.00    +0.000 A 
ATOM      6  C5  UNL     1     144.105 174.901 165.044  0.00  0.00    +0.000 A 
ATOM      7  C6  UNL     1     144.805 174.597 166.190  0.00  0.00    +0.000 A 
ATOM      8  C7  UNL     1     146.167 174.430 166.128  0.00  0.00    +0.000 A 
BRANCH   8   9
ATOM      9  N4  UNL     1     146.900 174.117 167.308  0.00  0.00    +0.000 N 
ATOM     10  H6  UNL     1     146.584 173.323 167.901  0.00  0.00    +0.000 HD
ATOM     11  H7  UNL     1     147.727 174.720 167.508  0.00  0.00    +0.000 HD
ENDBRANCH   8   9
ENDBRANCH   2   3
BRANCH   1  12
ATOM     12  N1  UNL     1     150.442 174.854 164.155  0.00  0.00    +0.000 N 
ATOM     13  H1  UNL     1     150.986 175.072 165.002  0.00  0.00    +0.000 HD
BRANCH  12  15
ATOM     14  S1  UNL     1     152.067 175.216 162.064  0.00  0.00    +0.000 S 
ATOM     15  C1  UNL     1     151.046 174.336 162.986  0.00  0.00    +0.000 C 
BRANCH  15  16
ATOM     16  N5  UNL     1     150.736 172.991 162.616  0.00  0.00    +0.000 N 
ATOM     17  H8  UNL     1     151.203 172.169 163.071  0.00  0.00    +0.000 HD
ATOM     18  H9  UNL     1     150.018 172.870 161.868  0.00  0.00    +0.000 HD
ENDBRANCH  15  16
ENDBRANCH  12  15
ENDBRANCH   1  12
TORSDOF 5
ENDMDL
MODEL 9
REMARK VINA RESULT:      -3.9      9.342     10.980
REMARK  Name = ./3D_structures\o35_MMV1580496_3D.pdb
REMARK  5 active torsions:
REMARK  status: ('A' for Active; 'I' for Inactive)
REMARK    1  A    between atoms: C1_2  and  N1_3
REMARK    2  A    between atoms: C1_2  and  N5_13
REMARK    3  A    between atoms: N1_3  and  N2_4
REMARK    4  A    between atoms: C2_5  and  C3_6
REMARK    5  A    between atoms: C7_11  and  N4_12
REMARK                            x       y       z     vdW  Elec       q    Type
REMARK                         _______ _______ _______ _____ _____    ______ ____
ROOT
ATOM      1  N2  UNL     1     150.407 165.784 166.412  0.00  0.00    +0.000 NA
ATOM      2  C2  UNL     1     150.659 165.762 165.168  0.00  0.00    +0.000 C 
ENDROOT
BRANCH   2   3
ATOM      3  C3  UNL     1     151.873 165.134 164.625  0.00  0.00    +0.000 A 
ATOM      4  N3  UNL     1     151.832 163.916 164.046  0.00  0.00    +0.000 NA
ATOM      5  C4  UNL     1     152.943 163.323 163.542  0.00  0.00    +0.000 A 
ATOM      6  C5  UNL     1     154.172 163.950 163.602  0.00  0.00    +0.000 A 
ATOM      7  C6  UNL     1     154.235 165.194 164.188  0.00  0.00    +0.000 A 
ATOM      8  C7  UNL     1     153.091 165.766 164.690  0.00  0.00    +0.000 A 
BRANCH   8   9
ATOM      9  N4  UNL     1     153.146 167.051 165.298  0.00  0.00    +0.000 N 
ATOM     10  H6  UNL     1     154.049 167.568 165.303  0.00  0.00    +0.000 HD
ATOM     11  H7  UNL     1     152.255 167.402 165.713  0.00  0.00    +0.000 HD
ENDBRANCH   8   9
ENDBRANCH   2   3
BRANCH   1  12
ATOM     12  N1  UNL     1     149.241 166.394 166.864  0.00  0.00    +0.000 N 
ATOM     13  H1  UNL     1     149.310 167.221 167.473  0.00  0.00    +0.000 HD
BRANCH  12  15
ATOM     14  S1  UNL     1     147.490 164.376 166.950  0.00  0.00    +0.000 S 
ATOM     15  C1  UNL     1     147.995 165.853 166.469  0.00  0.00    +0.000 C 
BRANCH  15  16
ATOM     16  N5  UNL     1     147.165 166.644 165.617  0.00  0.00    +0.000 N 
ATOM     17  H8  UNL     1     146.299 167.119 165.970  0.00  0.00    +0.000 HD
ATOM     18  H9  UNL     1     147.468 166.725 164.621  0.00  0.00    +0.000 HD
ENDBRANCH  15  16
ENDBRANCH  12  15
ENDBRANCH   1  12
TORSDOF 5
ENDMDL
