MODEL 1
REMARK VINA RESULT:      -5.2      0.000      0.000
REMARK  Name = ./3D_structures\o37_MMV1782113_3D.pdb
REMARK  5 active torsions:
REMARK  status: ('A' for Active; 'I' for Inactive)
REMARK    1  A    between atoms: N2_9  and  C13_17
REMARK    2  A    between atoms: C6_10  and  C7_11
REMARK    3  A    between atoms: C6_10  and  C10_14
REMARK    4  A    between atoms: C10_14  and  C11_15
REMARK    5  A    between atoms: C11_15  and  C12_16
REMARK                            x       y       z     vdW  Elec       q    Type
REMARK                         _______ _______ _______ _____ _____    ______ ____
ROOT
ATOM      1 CL1  UNL     1     150.097 160.735 168.197  0.00  0.00    +0.000 Cl
ATOM      2  C1  UNL     1     149.598 162.333 167.615  0.00  0.00    +0.000 A 
ATOM      3  C2  UNL     1     148.236 162.617 167.555  0.00  0.00    +0.000 A 
ATOM      4  C3  UNL     1     147.725 163.825 167.120  0.00  0.00    +0.000 A 
ATOM      5  C4  UNL     1     148.678 164.758 166.736  0.00  0.00    +0.000 A 
ATOM      6  N1  UNL     1     148.287 166.013 166.179  0.00  0.00    +0.000 N 
ATOM      7  C5  UNL     1     146.893 166.248 166.033  0.00  0.00    +0.000 C 
ATOM      8  O1  UNL     1     146.462 167.334 165.554  0.00  0.00    +0.000 OA
ATOM      9  N2  UNL     1     145.923 165.299 166.409  0.00  0.00    +0.000 N 
ATOM     10  C6  UNL     1     146.267 164.096 167.135  0.00  0.00    +0.000 C 
ATOM     11  C13 UNL     1     144.514 165.524 166.068  0.00  0.00    +0.000 C 
ATOM     12  C14 UNL     1     150.051 164.477 166.796  0.00  0.00    +0.000 A 
ATOM     13  C15 UNL     1     150.511 163.263 167.237  0.00  0.00    +0.000 A 
ATOM     14  H2  UNL     1     148.989 166.730 165.890  0.00  0.00    +0.000 HD
ENDROOT
BRANCH  10  15
ATOM     15  C7  UNL     1     145.822 164.304 168.593  0.00  0.00    +0.000 C 
ATOM     16  C8  UNL     1     146.114 165.480 169.381  0.00  0.00    +0.000 C 
ATOM     17  C9  UNL     1     146.707 164.091 169.726  0.00  0.00    +0.000 C 
ENDBRANCH  10  15
BRANCH  10  18
ATOM     18  C10 UNL     1     145.453 162.911 166.668  0.00  0.00    +0.000 C 
BRANCH  18  19
ATOM     19  C11 UNL     1     144.532 162.353 167.692  0.00  0.00    +0.000 C 
ATOM     20  C12 UNL     1     144.898 160.875 167.859  0.00  0.00    +0.000 C 
ENDBRANCH  18  19
ENDBRANCH  10  18
TORSDOF 3
ENDMDL
MODEL 2
REMARK VINA RESULT:      -5.1      1.400      1.744
REMARK  Name = ./3D_structures\o37_MMV1782113_3D.pdb
REMARK  5 active torsions:
REMARK  status: ('A' for Active; 'I' for Inactive)
REMARK    1  A    between atoms: N2_9  and  C13_17
REMARK    2  A    between atoms: C6_10  and  C7_11
REMARK    3  A    between atoms: C6_10  and  C10_14
REMARK    4  A    between atoms: C10_14  and  C11_15
REMARK    5  A    between atoms: C11_15  and  C12_16
REMARK                            x       y       z     vdW  Elec       q    Type
REMARK                         _______ _______ _______ _____ _____    ______ ____
ROOT
ATOM      1 CL1  UNL     1     147.676 158.976 168.291  0.00  0.00    +0.000 Cl
ATOM      2  C1  UNL     1     148.111 160.647 167.889  0.00  0.00    +0.000 A 
ATOM      3  C2  UNL     1     147.089 161.584 167.767  0.00  0.00    +0.000 A 
ATOM      4  C3  UNL     1     147.302 162.914 167.459  0.00  0.00    +0.000 A 
ATOM      5  C4  UNL     1     148.632 163.264 167.272  0.00  0.00    +0.000 A 
ATOM      6  N1  UNL     1     148.987 164.583 166.858  0.00  0.00    +0.000 N 
ATOM      7  C5  UNL     1     147.923 165.501 166.643  0.00  0.00    +0.000 C 
ATOM      8  O1  UNL     1     148.150 166.689 166.280  0.00  0.00    +0.000 OA
ATOM      9  N2  UNL     1     146.572 165.146 166.818  0.00  0.00    +0.000 N 
ATOM     10  C6  UNL     1     146.180 163.882 167.403  0.00  0.00    +0.000 C 
ATOM     11  C13 UNL     1     145.516 166.077 166.408  0.00  0.00    +0.000 C 
ATOM     12  C14 UNL     1     149.665 162.324 167.395  0.00  0.00    +0.000 A 
ATOM     13  C15 UNL     1     149.405 161.015 167.705  0.00  0.00    +0.000 A 
ATOM     14  H2  UNL     1     149.982 164.867 166.719  0.00  0.00    +0.000 HD
ENDROOT
BRANCH  10  15
ATOM     15  C7  UNL     1     145.711 164.173 168.839  0.00  0.00    +0.000 C 
ATOM     16  C8  UNL     1     146.280 165.186 169.699  0.00  0.00    +0.000 C 
ATOM     17  C9  UNL     1     146.408 163.675 170.012  0.00  0.00    +0.000 C 
ENDBRANCH  10  15
BRANCH  10  18
ATOM     18  C10 UNL     1     144.955 163.311 166.725  0.00  0.00    +0.000 C 
BRANCH  18  19
ATOM     19  C11 UNL     1     143.751 163.232 167.593  0.00  0.00    +0.000 C 
ATOM     20  C12 UNL     1     142.534 163.231 166.663  0.00  0.00    +0.000 C 
ENDBRANCH  18  19
ENDBRANCH  10  18
TORSDOF 3
ENDMDL
MODEL 3
REMARK VINA RESULT:      -4.9      9.345     10.839
REMARK  Name = ./3D_structures\o37_MMV1782113_3D.pdb
REMARK  5 active torsions:
REMARK  status: ('A' for Active; 'I' for Inactive)
REMARK    1  A    between atoms: N2_9  and  C13_17
REMARK    2  A    between atoms: C6_10  and  C7_11
REMARK    3  A    between atoms: C6_10  and  C10_14
REMARK    4  A    between atoms: C10_14  and  C11_15
REMARK    5  A    between atoms: C11_15  and  C12_16
REMARK                            x       y       z     vdW  Elec       q    Type
REMARK                         _______ _______ _______ _____ _____    ______ ____
ROOT
ATOM      1 CL1  UNL     1     151.846 160.830 172.662  0.00  0.00    +0.000 Cl
ATOM      2  C1  UNL     1     153.519 160.302 172.410  0.00  0.00    +0.000 A 
ATOM      3  C2  UNL     1     153.929 160.006 171.112  0.00  0.00    +0.000 A 
ATOM      4  C3  UNL     1     155.204 159.585 170.790  0.00  0.00    +0.000 A 
ATOM      5  C4  UNL     1     156.072 159.471 171.868  0.00  0.00    +0.000 A 
ATOM      6  N1  UNL     1     157.392 158.959 171.689  0.00  0.00    +0.000 N 
ATOM      7  C5  UNL     1     157.762 158.569 170.374  0.00  0.00    +0.000 C 
ATOM      8  O1  UNL     1     158.912 158.110 170.129  0.00  0.00    +0.000 OA
ATOM      9  N2  UNL     1     156.881 158.670 169.280  0.00  0.00    +0.000 N 
ATOM     10  C6  UNL     1     155.605 159.344 169.382  0.00  0.00    +0.000 C 
ATOM     11  C13 UNL     1     157.254 158.087 167.988  0.00  0.00    +0.000 C 
ATOM     12  C14 UNL     1     155.664 159.769 173.176  0.00  0.00    +0.000 A 
ATOM     13  C15 UNL     1     154.386 160.186 173.447  0.00  0.00    +0.000 A 
ATOM     14  H2  UNL     1     158.061 158.871 172.487  0.00  0.00    +0.000 HD
ENDROOT
BRANCH  10  15
ATOM     15  C7  UNL     1     155.751 160.702 168.674  0.00  0.00    +0.000 C 
ATOM     16  C8  UNL     1     157.012 161.355 168.406  0.00  0.00    +0.000 C 
ATOM     17  C9  UNL     1     155.974 161.945 169.392  0.00  0.00    +0.000 C 
ENDBRANCH  10  15
BRANCH  10  18
ATOM     18  C10 UNL     1     154.533 158.631 168.590  0.00  0.00    +0.000 C 
BRANCH  18  19
ATOM     19  C11 UNL     1     153.900 159.455 167.528  0.00  0.00    +0.000 C 
ATOM     20  C12 UNL     1     154.158 158.739 166.198  0.00  0.00    +0.000 C 
ENDBRANCH  18  19
ENDBRANCH  10  18
TORSDOF 3
ENDMDL
MODEL 4
REMARK VINA RESULT:      -4.9      3.134      5.132
REMARK  Name = ./3D_structures\o37_MMV1782113_3D.pdb
REMARK  5 active torsions:
REMARK  status: ('A' for Active; 'I' for Inactive)
REMARK    1  A    between atoms: N2_9  and  C13_17
REMARK    2  A    between atoms: C6_10  and  C7_11
REMARK    3  A    between atoms: C6_10  and  C10_14
REMARK    4  A    between atoms: C10_14  and  C11_15
REMARK    5  A    between atoms: C11_15  and  C12_16
REMARK                            x       y       z     vdW  Elec       q    Type
REMARK                         _______ _______ _______ _____ _____    ______ ____
ROOT
ATOM      1 CL1  UNL     1     145.226 168.096 165.724  0.00  0.00    +0.000 Cl
ATOM      2  C1  UNL     1     145.067 166.355 166.018  0.00  0.00    +0.000 A 
ATOM      3  C2  UNL     1     146.128 165.689 166.624  0.00  0.00    +0.000 A 
ATOM      4  C3  UNL     1     146.123 164.336 166.903  0.00  0.00    +0.000 A 
ATOM      5  C4  UNL     1     144.965 163.667 166.532  0.00  0.00    +0.000 A 
ATOM      6  N1  UNL     1     144.862 162.251 166.678  0.00  0.00    +0.000 N 
ATOM      7  C5  UNL     1     145.993 161.573 167.208  0.00  0.00    +0.000 C 
ATOM      8  O1  UNL     1     145.984 160.321 167.374  0.00  0.00    +0.000 OA
ATOM      9  N2  UNL     1     147.175 162.245 167.574  0.00  0.00    +0.000 N 
ATOM     10  C6  UNL     1     147.257 163.689 167.607  0.00  0.00    +0.000 C 
ATOM     11  C13 UNL     1     148.366 161.475 167.942  0.00  0.00    +0.000 C 
ATOM     12  C14 UNL     1     143.892 164.335 165.922  0.00  0.00    +0.000 A 
ATOM     13  C15 UNL     1     143.943 165.680 165.666  0.00  0.00    +0.000 A 
ATOM     14  H2  UNL     1     143.996 161.731 166.410  0.00  0.00    +0.000 HD
ENDROOT
BRANCH  10  15
ATOM     15  C7  UNL     1     147.221 164.111 169.086  0.00  0.00    +0.000 C 
ATOM     16  C8  UNL     1     146.348 163.533 170.083  0.00  0.00    +0.000 C 
ATOM     17  C9  UNL     1     146.213 165.007 169.627  0.00  0.00    +0.000 C 
ENDBRANCH  10  15
BRANCH  10  18
ATOM     18  C10 UNL     1     148.600 164.183 167.118  0.00  0.00    +0.000 C 
BRANCH  18  19
ATOM     19  C11 UNL     1     149.429 164.846 168.157  0.00  0.00    +0.000 C 
ATOM     20  C12 UNL     1     149.894 166.181 167.566  0.00  0.00    +0.000 C 
ENDBRANCH  18  19
ENDBRANCH  10  18
TORSDOF 3
ENDMDL
MODEL 5
REMARK VINA RESULT:      -4.9     23.046     25.255
REMARK  Name = ./3D_structures\o37_MMV1782113_3D.pdb
REMARK  5 active torsions:
REMARK  status: ('A' for Active; 'I' for Inactive)
REMARK    1  A    between atoms: N2_9  and  C13_17
REMARK    2  A    between atoms: C6_10  and  C7_11
REMARK    3  A    between atoms: C6_10  and  C10_14
REMARK    4  A    between atoms: C10_14  and  C11_15
REMARK    5  A    between atoms: C11_15  and  C12_16
REMARK                            x       y       z     vdW  Elec       q    Type
REMARK                         _______ _______ _______ _____ _____    ______ ____
ROOT
ATOM      1 CL1  UNL     1     163.554 142.777 165.872  0.00  0.00    +0.000 Cl
ATOM      2  C1  UNL     1     163.251 142.677 167.616  0.00  0.00    +0.000 A 
ATOM      3  C2  UNL     1     162.903 143.843 168.293  0.00  0.00    +0.000 A 
ATOM      4  C3  UNL     1     162.643 143.892 169.649  0.00  0.00    +0.000 A 
ATOM      5  C4  UNL     1     162.756 142.676 170.309  0.00  0.00    +0.000 A 
ATOM      6  N1  UNL     1     162.606 142.601 171.727  0.00  0.00    +0.000 N 
ATOM      7  C5  UNL     1     162.347 143.816 172.415  0.00  0.00    +0.000 C 
ATOM      8  O1  UNL     1     162.196 143.837 173.669  0.00  0.00    +0.000 OA
ATOM      9  N2  UNL     1     162.244 145.054 171.751  0.00  0.00    +0.000 N 
ATOM     10  C6  UNL     1     162.215 145.150 170.307  0.00  0.00    +0.000 C 
ATOM     11  C13 UNL     1     162.158 146.293 172.529  0.00  0.00    +0.000 C 
ATOM     12  C14 UNL     1     163.106 141.499 169.632  0.00  0.00    +0.000 A 
ATOM     13  C15 UNL     1     163.353 141.500 168.283  0.00  0.00    +0.000 A 
ATOM     14  H2  UNL     1     162.681 141.694 172.240  0.00  0.00    +0.000 HD
ENDROOT
BRANCH  10  15
ATOM     15  C7  UNL     1     160.760 145.445 169.903  0.00  0.00    +0.000 C 
ATOM     16  C8  UNL     1     159.633 145.410 170.808  0.00  0.00    +0.000 C 
ATOM     17  C9  UNL     1     159.786 144.398 169.644  0.00  0.00    +0.000 C 
ENDBRANCH  10  15
BRANCH  10  18
ATOM     18  C10 UNL     1     162.984 146.354 169.813  0.00  0.00    +0.000 C 
BRANCH  18  19
ATOM     19  C11 UNL     1     162.200 147.276 168.952  0.00  0.00    +0.000 C 
ATOM     20  C12 UNL     1     162.306 148.668 169.581  0.00  0.00    +0.000 C 
ENDBRANCH  18  19
ENDBRANCH  10  18
TORSDOF 3
ENDMDL
MODEL 6
REMARK VINA RESULT:      -4.9      7.882     10.115
REMARK  Name = ./3D_structures\o37_MMV1782113_3D.pdb
REMARK  5 active torsions:
REMARK  status: ('A' for Active; 'I' for Inactive)
REMARK    1  A    between atoms: N2_9  and  C13_17
REMARK    2  A    between atoms: C6_10  and  C7_11
REMARK    3  A    between atoms: C6_10  and  C10_14
REMARK    4  A    between atoms: C10_14  and  C11_15
REMARK    5  A    between atoms: C11_15  and  C12_16
REMARK                            x       y       z     vdW  Elec       q    Type
REMARK                         _______ _______ _______ _____ _____    ______ ____
ROOT
ATOM      1 CL1  UNL     1     159.113 157.960 167.137  0.00  0.00    +0.000 Cl
ATOM      2  C1  UNL     1     158.118 158.442 168.522  0.00  0.00    +0.000 A 
ATOM      3  C2  UNL     1     156.845 158.950 168.274  0.00  0.00    +0.000 A 
ATOM      4  C3  UNL     1     155.977 159.359 169.268  0.00  0.00    +0.000 A 
ATOM      5  C4  UNL     1     156.467 159.229 170.561  0.00  0.00    +0.000 A 
ATOM      6  N1  UNL     1     155.712 159.700 171.677  0.00  0.00    +0.000 N 
ATOM      7  C5  UNL     1     154.457 160.305 171.399  0.00  0.00    +0.000 C 
ATOM      8  O1  UNL     1     153.724 160.744 172.329  0.00  0.00    +0.000 OA
ATOM      9  N2  UNL     1     153.961 160.450 170.089  0.00  0.00    +0.000 N 
ATOM     10  C6  UNL     1     154.609 159.833 168.951  0.00  0.00    +0.000 C 
ATOM     11  C13 UNL     1     152.750 161.241 169.851  0.00  0.00    +0.000 C 
ATOM     12  C14 UNL     1     157.748 158.717 170.815  0.00  0.00    +0.000 A 
ATOM     13  C15 UNL     1     158.573 158.323 169.794  0.00  0.00    +0.000 A 
ATOM     14  H2  UNL     1     156.062 159.606 172.657  0.00  0.00    +0.000 HD
ENDROOT
BRANCH  10  15
ATOM     15  C7  UNL     1     153.752 158.623 168.543  0.00  0.00    +0.000 C 
ATOM     16  C8  UNL     1     153.013 157.792 169.467  0.00  0.00    +0.000 C 
ATOM     17  C9  UNL     1     154.218 157.252 168.658  0.00  0.00    +0.000 C 
ENDBRANCH  10  15
BRANCH  10  18
ATOM     18  C10 UNL     1     154.575 160.732 167.736  0.00  0.00    +0.000 C 
BRANCH  18  19
ATOM     19  C11 UNL     1     153.841 160.170 166.573  0.00  0.00    +0.000 C 
ATOM     20  C12 UNL     1     154.785 160.257 165.369  0.00  0.00    +0.000 C 
ENDBRANCH  18  19
ENDBRANCH  10  18
TORSDOF 3
ENDMDL
MODEL 7
REMARK VINA RESULT:      -4.8      3.102      5.267
REMARK  Name = ./3D_structures\o37_MMV1782113_3D.pdb
REMARK  5 active torsions:
REMARK  status: ('A' for Active; 'I' for Inactive)
REMARK    1  A    between atoms: N2_9  and  C13_17
REMARK    2  A    between atoms: C6_10  and  C7_11
REMARK    3  A    between atoms: C6_10  and  C10_14
REMARK    4  A    between atoms: C10_14  and  C11_15
REMARK    5  A    between atoms: C11_15  and  C12_16
REMARK                            x       y       z     vdW  Elec       q    Type
REMARK                         _______ _______ _______ _____ _____    ______ ____
ROOT
ATOM      1 CL1  UNL     1     145.119 167.719 165.676  0.00  0.00    +0.000 Cl
ATOM      2  C1  UNL     1     145.513 166.054 166.138  0.00  0.00    +0.000 A 
ATOM      3  C2  UNL     1     146.815 165.773 166.545  0.00  0.00    +0.000 A 
ATOM      4  C3  UNL     1     147.242 164.517 166.929  0.00  0.00    +0.000 A 
ATOM      5  C4  UNL     1     146.269 163.528 166.879  0.00  0.00    +0.000 A 
ATOM      6  N1  UNL     1     146.597 162.168 167.160  0.00  0.00    +0.000 N 
ATOM      7  C5  UNL     1     147.952 161.883 167.479  0.00  0.00    +0.000 C 
ATOM      8  O1  UNL     1     148.326 160.706 167.744  0.00  0.00    +0.000 OA
ATOM      9  N2  UNL     1     148.946 162.880 167.517  0.00  0.00    +0.000 N 
ATOM     10  C6  UNL     1     148.625 164.287 167.414  0.00  0.00    +0.000 C 
ATOM     11  C13 UNL     1     150.353 162.500 167.673  0.00  0.00    +0.000 C 
ATOM     12  C14 UNL     1     144.956 163.807 166.471  0.00  0.00    +0.000 A 
ATOM     13  C15 UNL     1     144.578 165.071 166.101  0.00  0.00    +0.000 A 
ATOM     14  H2  UNL     1     145.877 161.412 167.134  0.00  0.00    +0.000 HD
ENDROOT
BRANCH  10  15
ATOM     15  C7  UNL     1     148.756 164.887 168.824  0.00  0.00    +0.000 C 
ATOM     16  C8  UNL     1     148.844 164.111 170.041  0.00  0.00    +0.000 C 
ATOM     17  C9  UNL     1     147.630 165.021 169.732  0.00  0.00    +0.000 C 
ENDBRANCH  10  15
BRANCH  10  18
ATOM     18  C10 UNL     1     149.656 165.036 166.599  0.00  0.00    +0.000 C 
BRANCH  18  19
ATOM     19  C11 UNL     1     150.387 166.089 167.349  0.00  0.00    +0.000 C 
ATOM     20  C12 UNL     1     151.861 165.978 166.946  0.00  0.00    +0.000 C 
ENDBRANCH  18  19
ENDBRANCH  10  18
TORSDOF 3
ENDMDL
MODEL 8
REMARK VINA RESULT:      -4.8     22.805     24.747
REMARK  Name = ./3D_structures\o37_MMV1782113_3D.pdb
REMARK  5 active torsions:
REMARK  status: ('A' for Active; 'I' for Inactive)
REMARK    1  A    between atoms: N2_9  and  C13_17
REMARK    2  A    between atoms: C6_10  and  C7_11
REMARK    3  A    between atoms: C6_10  and  C10_14
REMARK    4  A    between atoms: C10_14  and  C11_15
REMARK    5  A    between atoms: C11_15  and  C12_16
REMARK                            x       y       z     vdW  Elec       q    Type
REMARK                         _______ _______ _______ _____ _____    ______ ____
ROOT
ATOM      1 CL1  UNL     1     159.801 145.311 165.314  0.00  0.00    +0.000 Cl
ATOM      2  C1  UNL     1     160.484 144.363 166.647  0.00  0.00    +0.000 A 
ATOM      3  C2  UNL     1     161.081 145.046 167.704  0.00  0.00    +0.000 A 
ATOM      4  C3  UNL     1     161.646 144.419 168.798  0.00  0.00    +0.000 A 
ATOM      5  C4  UNL     1     161.581 143.033 168.774  0.00  0.00    +0.000 A 
ATOM      6  N1  UNL     1     162.208 142.257 169.796  0.00  0.00    +0.000 N 
ATOM      7  C5  UNL     1     162.897 142.967 170.815  0.00  0.00    +0.000 C 
ATOM      8  O1  UNL     1     163.475 142.357 171.758  0.00  0.00    +0.000 OA
ATOM      9  N2  UNL     1     162.977 144.373 170.836  0.00  0.00    +0.000 N 
ATOM     10  C6  UNL     1     162.213 145.198 169.925  0.00  0.00    +0.000 C 
ATOM     11  C13 UNL     1     163.850 145.039 171.807  0.00  0.00    +0.000 C 
ATOM     12  C14 UNL     1     160.980 142.341 167.713  0.00  0.00    +0.000 A 
ATOM     13  C15 UNL     1     160.430 143.007 166.649  0.00  0.00    +0.000 A 
ATOM     14  H2  UNL     1     162.165 141.213 169.798  0.00  0.00    +0.000 HD
ENDROOT
BRANCH  10  15
ATOM     15  C7  UNL     1     161.054 145.808 170.732  0.00  0.00    +0.000 C 
ATOM     16  C8  UNL     1     160.499 145.233 171.936  0.00  0.00    +0.000 C 
ATOM     17  C9  UNL     1     159.683 145.337 170.624  0.00  0.00    +0.000 C 
ENDBRANCH  10  15
BRANCH  10  18
ATOM     18  C10 UNL     1     163.007 146.397 169.459  0.00  0.00    +0.000 C 
BRANCH  18  19
ATOM     19  C11 UNL     1     162.360 147.707 169.728  0.00  0.00    +0.000 C 
ATOM     20  C12 UNL     1     162.315 148.461 168.395  0.00  0.00    +0.000 C 
ENDBRANCH  18  19
ENDBRANCH  10  18
TORSDOF 3
ENDMDL
MODEL 9
REMARK VINA RESULT:      -4.8      2.211      3.517
REMARK  Name = ./3D_structures\o37_MMV1782113_3D.pdb
REMARK  5 active torsions:
REMARK  status: ('A' for Active; 'I' for Inactive)
REMARK    1  A    between atoms: N2_9  and  C13_17
REMARK    2  A    between atoms: C6_10  and  C7_11
REMARK    3  A    between atoms: C6_10  and  C10_14
REMARK    4  A    between atoms: C10_14  and  C11_15
REMARK    5  A    between atoms: C11_15  and  C12_16
REMARK                            x       y       z     vdW  Elec       q    Type
REMARK                         _______ _______ _______ _____ _____    ______ ____
ROOT
ATOM      1 CL1  UNL     1     153.967 163.010 165.536  0.00  0.00    +0.000 Cl
ATOM      2  C1  UNL     1     152.506 164.013 165.571  0.00  0.00    +0.000 A 
ATOM      3  C2  UNL     1     151.487 163.663 166.453  0.00  0.00    +0.000 A 
ATOM      4  C3  UNL     1     150.303 164.365 166.572  0.00  0.00    +0.000 A 
ATOM      5  C4  UNL     1     150.190 165.466 165.735  0.00  0.00    +0.000 A 
ATOM      6  N1  UNL     1     148.983 166.226 165.688  0.00  0.00    +0.000 N 
ATOM      7  C5  UNL     1     147.917 165.797 166.524  0.00  0.00    +0.000 C 
ATOM      8  O1  UNL     1     146.816 166.415 166.546  0.00  0.00    +0.000 OA
ATOM      9  N2  UNL     1     148.021 164.673 167.365  0.00  0.00    +0.000 N 
ATOM     10  C6  UNL     1     149.277 163.985 167.574  0.00  0.00    +0.000 C 
ATOM     11  C13 UNL     1     146.834 164.173 168.065  0.00  0.00    +0.000 C 
ATOM     12  C14 UNL     1     151.214 165.823 164.845  0.00  0.00    +0.000 A 
ATOM     13  C15 UNL     1     152.373 165.096 164.764  0.00  0.00    +0.000 A 
ATOM     14  H2  UNL     1     148.882 167.061 165.069  0.00  0.00    +0.000 HD
ENDROOT
BRANCH  10  15
ATOM     15  C7  UNL     1     149.785 164.381 168.970  0.00  0.00    +0.000 C 
ATOM     16  C8  UNL     1     149.332 165.538 169.710  0.00  0.00    +0.000 C 
ATOM     17  C9  UNL     1     150.783 165.415 169.183  0.00  0.00    +0.000 C 
ENDBRANCH  10  15
BRANCH  10  18
ATOM     18  C10 UNL     1     149.085 162.488 167.665  0.00  0.00    +0.000 C 
BRANCH  18  19
ATOM     19  C11 UNL     1     149.563 161.881 168.933  0.00  0.00    +0.000 C 
ATOM     20  C12 UNL     1     150.483 160.718 168.549  0.00  0.00    +0.000 C 
ENDBRANCH  18  19
ENDBRANCH  10  18
TORSDOF 3
ENDMDL
