MODEL 1
REMARK VINA RESULT:      -7.8      0.000      0.000
REMARK  Name = ./3D_structures\o38_MMV1634393_3D.pdb
REMARK  10 active torsions:
REMARK  status: ('A' for Active; 'I' for Inactive)
REMARK    1  A    between atoms: C1_2  and  C2_5
REMARK    2  A    between atoms: N1_9  and  C7_12
REMARK    3  A    between atoms: C7_12  and  C8_13
REMARK    4  A    between atoms: C8_13  and  N2_14
REMARK    5  A    between atoms: C8_13  and  C18_24
REMARK    6  A    between atoms: N2_14  and  C9_15
REMARK    7  A    between atoms: C21_27  and  C22_28
REMARK    8  A    between atoms: C22_28  and  C23_29
REMARK    9  A    between atoms: C22_28  and  C24_30
REMARK   10  A    between atoms: C22_28  and  C25_31
REMARK                            x       y       z     vdW  Elec       q    Type
REMARK                         _______ _______ _______ _____ _____    ______ ____
ROOT
ATOM      1  C8  UNL     1     157.155 157.206 165.731  0.00  0.00    +0.000 C 
ENDROOT
BRANCH   1   2
ATOM      2  C18 UNL     1     156.146 158.269 165.542  0.00  0.00    +0.000 A 
ATOM      3  C19 UNL     1     154.885 158.088 166.097  0.00  0.00    +0.000 A 
ATOM      4  C20 UNL     1     153.898 159.051 166.117  0.00  0.00    +0.000 A 
ATOM      5  C21 UNL     1     154.214 160.267 165.539  0.00  0.00    +0.000 A 
ATOM      6  C26 UNL     1     155.433 160.470 164.987  0.00  0.00    +0.000 A 
ATOM      7  C27 UNL     1     156.408 159.481 164.981  0.00  0.00    +0.000 A 
BRANCH   5   8
ATOM      8  C22 UNL     1     153.170 161.330 165.683  0.00  0.00    +0.000 C 
ATOM      9  C23 UNL     1     152.980 161.639 167.148  0.00  0.00    +0.000 C 
ATOM     10  C24 UNL     1     151.901 160.958 164.997  0.00  0.00    +0.000 C 
ATOM     11  C25 UNL     1     153.715 162.608 165.032  0.00  0.00    +0.000 C 
ENDBRANCH   5   8
ENDBRANCH   1   2
BRANCH   1  12
ATOM     12  N2  UNL     1     157.696 156.611 164.628  0.00  0.00    +0.000 NA
ATOM     13  H7  UNL     1     158.235 157.212 163.949  0.00  0.00    +0.000 HD
BRANCH  12  14
ATOM     14  C9  UNL     1     157.608 155.285 164.316  0.00  0.00    +0.000 C 
ATOM     15  C10 UNL     1     157.575 154.827 162.893  0.00  0.00    +0.000 C 
ATOM     16  C11 UNL     1     157.624 153.329 163.129  0.00  0.00    +0.000 A 
ATOM     17  C12 UNL     1     158.407 153.141 164.259  0.00  0.00    +0.000 A 
ATOM     18  C13 UNL     1     158.862 154.476 164.763  0.00  0.00    +0.000 C 
ATOM     19  C14 UNL     1     158.589 151.831 164.683  0.00  0.00    +0.000 A 
ATOM     20  C15 UNL     1     158.016 150.773 164.011  0.00  0.00    +0.000 A 
ATOM     21  C16 UNL     1     157.245 150.978 162.895  0.00  0.00    +0.000 A 
ATOM     22  C17 UNL     1     157.062 152.284 162.466  0.00  0.00    +0.000 A 
ENDBRANCH  12  14
ENDBRANCH   1  12
BRANCH   1  23
ATOM     23  C7  UNL     1     157.107 156.612 167.088  0.00  0.00    +0.000 C 
BRANCH  23  28
ATOM     24  C2  UNL     1     157.300 158.618 170.254  0.00  0.00    +0.000 A 
ATOM     25  C3  UNL     1     158.490 159.293 170.072  0.00  0.00    +0.000 A 
ATOM     26  C4  UNL     1     159.216 159.065 168.914  0.00  0.00    +0.000 A 
ATOM     27  C5  UNL     1     158.719 158.172 167.989  0.00  0.00    +0.000 A 
ATOM     28  N1  UNL     1     157.536 157.495 168.165  0.00  0.00    +0.000 N 
ATOM     29  C6  UNL     1     156.881 157.739 169.271  0.00  0.00    +0.000 A 
ATOM     30  O1  UNL     1     155.789 157.164 169.499  0.00  0.00    +0.000 OA
BRANCH  24  32
ATOM     31  F1  UNL     1     155.262 159.321 171.253  0.00  0.00    +0.000 F 
ATOM     32  C1  UNL     1     156.523 158.844 171.508  0.00  0.00    +0.000 C 
ATOM     33  F2  UNL     1     156.461 157.681 172.278  0.00  0.00    +0.000 F 
ATOM     34  F3  UNL     1     157.158 159.804 172.253  0.00  0.00    +0.000 F 
ENDBRANCH  24  32
ENDBRANCH  23  28
ENDBRANCH   1  23
TORSDOF 7
ENDMDL
MODEL 2
REMARK VINA RESULT:      -7.7      1.679      2.414
REMARK  Name = ./3D_structures\o38_MMV1634393_3D.pdb
REMARK  10 active torsions:
REMARK  status: ('A' for Active; 'I' for Inactive)
REMARK    1  A    between atoms: C1_2  and  C2_5
REMARK    2  A    between atoms: N1_9  and  C7_12
REMARK    3  A    between atoms: C7_12  and  C8_13
REMARK    4  A    between atoms: C8_13  and  N2_14
REMARK    5  A    between atoms: C8_13  and  C18_24
REMARK    6  A    between atoms: N2_14  and  C9_15
REMARK    7  A    between atoms: C21_27  and  C22_28
REMARK    8  A    between atoms: C22_28  and  C23_29
REMARK    9  A    between atoms: C22_28  and  C24_30
REMARK   10  A    between atoms: C22_28  and  C25_31
REMARK                            x       y       z     vdW  Elec       q    Type
REMARK                         _______ _______ _______ _____ _____    ______ ____
ROOT
ATOM      1  C8  UNL     1     155.743 157.350 166.403  0.00  0.00    +0.000 C 
ENDROOT
BRANCH   1   2
ATOM      2  C18 UNL     1     155.222 158.634 165.890  0.00  0.00    +0.000 A 
ATOM      3  C19 UNL     1     153.919 158.994 166.215  0.00  0.00    +0.000 A 
ATOM      4  C20 UNL     1     153.354 160.218 165.922  0.00  0.00    +0.000 A 
ATOM      5  C21 UNL     1     154.162 161.125 165.261  0.00  0.00    +0.000 A 
ATOM      6  C26 UNL     1     155.433 160.799 164.928  0.00  0.00    +0.000 A 
ATOM      7  C27 UNL     1     155.975 159.559 165.236  0.00  0.00    +0.000 A 
BRANCH   5   8
ATOM      8  C22 UNL     1     153.565 162.483 165.065  0.00  0.00    +0.000 C 
ATOM      9  C23 UNL     1     154.429 163.267 164.108  0.00  0.00    +0.000 C 
ATOM     10  C24 UNL     1     153.346 163.187 166.360  0.00  0.00    +0.000 C 
ATOM     11  C25 UNL     1     152.205 162.299 164.378  0.00  0.00    +0.000 C 
ENDBRANCH   5   8
ENDBRANCH   1   2
BRANCH   1  12
ATOM     12  N2  UNL     1     156.082 156.375 165.510  0.00  0.00    +0.000 NA
ATOM     13  H7  UNL     1     155.311 155.914 164.955  0.00  0.00    +0.000 HD
BRANCH  12  14
ATOM     14  C9  UNL     1     157.347 155.930 165.260  0.00  0.00    +0.000 C 
ATOM     15  C10 UNL     1     157.639 155.043 164.093  0.00  0.00    +0.000 C 
ATOM     16  C11 UNL     1     159.151 154.989 164.211  0.00  0.00    +0.000 A 
ATOM     17  C12 UNL     1     159.545 156.230 164.693  0.00  0.00    +0.000 A 
ATOM     18  C13 UNL     1     158.330 157.082 164.893  0.00  0.00    +0.000 C 
ATOM     19  C14 UNL     1     160.905 156.418 164.898  0.00  0.00    +0.000 A 
ATOM     20  C15 UNL     1     161.816 155.417 164.634  0.00  0.00    +0.000 A 
ATOM     21  C16 UNL     1     161.408 154.197 164.158  0.00  0.00    +0.000 A 
ATOM     22  C17 UNL     1     160.050 154.005 163.950  0.00  0.00    +0.000 A 
ENDBRANCH  12  14
ENDBRANCH   1  12
BRANCH   1  23
ATOM     23  C7  UNL     1     155.397 157.125 167.827  0.00  0.00    +0.000 C 
BRANCH  23  28
ATOM     24  C2  UNL     1     156.805 159.014 170.748  0.00  0.00    +0.000 A 
ATOM     25  C3  UNL     1     158.153 158.993 170.457  0.00  0.00    +0.000 A 
ATOM     26  C4  UNL     1     158.579 158.345 169.309  0.00  0.00    +0.000 A 
ATOM     27  C5  UNL     1     157.634 157.746 168.502  0.00  0.00    +0.000 A 
ATOM     28  N1  UNL     1     156.290 157.761 168.787  0.00  0.00    +0.000 N 
ATOM     29  C6  UNL     1     155.931 158.384 169.880  0.00  0.00    +0.000 A 
ATOM     30  O1  UNL     1     154.720 158.447 170.204  0.00  0.00    +0.000 OA
BRANCH  24  32
ATOM     31  F1  UNL     1     155.305 160.558 171.754  0.00  0.00    +0.000 F 
ATOM     32  C1  UNL     1     156.343 159.694 171.994  0.00  0.00    +0.000 C 
ATOM     33  F2  UNL     1     155.990 158.764 172.974  0.00  0.00    +0.000 F 
ATOM     34  F3  UNL     1     157.372 160.452 172.490  0.00  0.00    +0.000 F 
ENDBRANCH  24  32
ENDBRANCH  23  28
ENDBRANCH   1  23
TORSDOF 7
ENDMDL
MODEL 3
REMARK VINA RESULT:      -7.4      3.815      7.472
REMARK  Name = ./3D_structures\o38_MMV1634393_3D.pdb
REMARK  10 active torsions:
REMARK  status: ('A' for Active; 'I' for Inactive)
REMARK    1  A    between atoms: C1_2  and  C2_5
REMARK    2  A    between atoms: N1_9  and  C7_12
REMARK    3  A    between atoms: C7_12  and  C8_13
REMARK    4  A    between atoms: C8_13  and  N2_14
REMARK    5  A    between atoms: C8_13  and  C18_24
REMARK    6  A    between atoms: N2_14  and  C9_15
REMARK    7  A    between atoms: C21_27  and  C22_28
REMARK    8  A    between atoms: C22_28  and  C23_29
REMARK    9  A    between atoms: C22_28  and  C24_30
REMARK   10  A    between atoms: C22_28  and  C25_31
REMARK                            x       y       z     vdW  Elec       q    Type
REMARK                         _______ _______ _______ _____ _____    ______ ____
ROOT
ATOM      1  C8  UNL     1     158.832 157.200 164.605  0.00  0.00    +0.000 C 
ENDROOT
BRANCH   1   2
ATOM      2  C18 UNL     1     158.589 155.820 164.137  0.00  0.00    +0.000 A 
ATOM      3  C19 UNL     1     159.037 154.767 164.927  0.00  0.00    +0.000 A 
ATOM      4  C20 UNL     1     158.759 153.439 164.682  0.00  0.00    +0.000 A 
ATOM      5  C21 UNL     1     157.982 153.167 163.571  0.00  0.00    +0.000 A 
ATOM      6  C26 UNL     1     157.536 154.173 162.781  0.00  0.00    +0.000 A 
ATOM      7  C27 UNL     1     157.832 155.502 163.052  0.00  0.00    +0.000 A 
BRANCH   5   8
ATOM      8  C22 UNL     1     157.596 151.732 163.399  0.00  0.00    +0.000 C 
ATOM      9  C23 UNL     1     158.581 150.865 164.144  0.00  0.00    +0.000 C 
ATOM     10  C24 UNL     1     157.464 151.360 161.963  0.00  0.00    +0.000 C 
ATOM     11  C25 UNL     1     156.234 151.531 164.078  0.00  0.00    +0.000 C 
ENDBRANCH   5   8
ENDBRANCH   1   2
BRANCH   1  12
ATOM     12  N2  UNL     1     157.800 157.897 165.163  0.00  0.00    +0.000 NA
ATOM     13  H7  UNL     1     157.183 158.472 164.529  0.00  0.00    +0.000 HD
BRANCH  12  14
ATOM     14  C9  UNL     1     157.481 157.919 166.490  0.00  0.00    +0.000 C 
ATOM     15  C10 UNL     1     156.790 156.762 167.139  0.00  0.00    +0.000 C 
ATOM     16  C11 UNL     1     156.821 157.247 168.576  0.00  0.00    +0.000 A 
ATOM     17  C12 UNL     1     158.003 157.961 168.718  0.00  0.00    +0.000 A 
ATOM     18  C13 UNL     1     158.736 157.952 167.412  0.00  0.00    +0.000 C 
ATOM     19  C14 UNL     1     158.250 158.520 169.964  0.00  0.00    +0.000 A 
ATOM     20  C15 UNL     1     157.359 158.373 171.007  0.00  0.00    +0.000 A 
ATOM     21  C16 UNL     1     156.195 157.664 170.847  0.00  0.00    +0.000 A 
ATOM     22  C17 UNL     1     155.945 157.101 169.605  0.00  0.00    +0.000 A 
ENDBRANCH  12  14
ENDBRANCH   1  12
BRANCH   1  23
ATOM     23  C7  UNL     1     160.039 157.803 163.991  0.00  0.00    +0.000 C 
BRANCH  23  28
ATOM     24  C2  UNL     1     162.673 158.386 166.600  0.00  0.00    +0.000 A 
ATOM     25  C3  UNL     1     162.618 159.758 166.735  0.00  0.00    +0.000 A 
ATOM     26  C4  UNL     1     161.723 160.471 165.954  0.00  0.00    +0.000 A 
ATOM     27  C5  UNL     1     160.922 159.777 165.071  0.00  0.00    +0.000 A 
ATOM     28  N1  UNL     1     160.973 158.411 164.930  0.00  0.00    +0.000 N 
ATOM     29  C6  UNL     1     161.831 157.777 165.687  0.00  0.00    +0.000 A 
ATOM     30  O1  UNL     1     161.930 156.527 165.621  0.00  0.00    +0.000 OA
BRANCH  24  32
ATOM     31  F1  UNL     1     164.431 158.435 168.198  0.00  0.00    +0.000 F 
ATOM     32  C1  UNL     1     163.649 157.615 167.425  0.00  0.00    +0.000 C 
ATOM     33  F2  UNL     1     162.999 156.667 168.219  0.00  0.00    +0.000 F 
ATOM     34  F3  UNL     1     164.501 156.943 166.588  0.00  0.00    +0.000 F 
ENDBRANCH  24  32
ENDBRANCH  23  28
ENDBRANCH   1  23
TORSDOF 7
ENDMDL
MODEL 4
REMARK VINA RESULT:      -7.4      4.051      6.190
REMARK  Name = ./3D_structures\o38_MMV1634393_3D.pdb
REMARK  10 active torsions:
REMARK  status: ('A' for Active; 'I' for Inactive)
REMARK    1  A    between atoms: C1_2  and  C2_5
REMARK    2  A    between atoms: N1_9  and  C7_12
REMARK    3  A    between atoms: C7_12  and  C8_13
REMARK    4  A    between atoms: C8_13  and  N2_14
REMARK    5  A    between atoms: C8_13  and  C18_24
REMARK    6  A    between atoms: N2_14  and  C9_15
REMARK    7  A    between atoms: C21_27  and  C22_28
REMARK    8  A    between atoms: C22_28  and  C23_29
REMARK    9  A    between atoms: C22_28  and  C24_30
REMARK   10  A    between atoms: C22_28  and  C25_31
REMARK                            x       y       z     vdW  Elec       q    Type
REMARK                         _______ _______ _______ _____ _____    ______ ____
ROOT
ATOM      1  C8  UNL     1     153.182 159.759 169.269  0.00  0.00    +0.000 C 
ENDROOT
BRANCH   1   2
ATOM      2  C18 UNL     1     152.167 159.050 170.075  0.00  0.00    +0.000 A 
ATOM      3  C19 UNL     1     151.852 157.739 169.734  0.00  0.00    +0.000 A 
ATOM      4  C20 UNL     1     151.031 156.919 170.478  0.00  0.00    +0.000 A 
ATOM      5  C21 UNL     1     150.500 157.463 171.633  0.00  0.00    +0.000 A 
ATOM      6  C26 UNL     1     150.785 158.738 171.986  0.00  0.00    +0.000 A 
ATOM      7  C27 UNL     1     151.616 159.543 171.217  0.00  0.00    +0.000 A 
BRANCH   5   8
ATOM      8  C22 UNL     1     149.712 156.514 172.480  0.00  0.00    +0.000 C 
ATOM      9  C23 UNL     1     149.815 156.942 173.924  0.00  0.00    +0.000 C 
ATOM     10  C24 UNL     1     150.126 155.100 172.263  0.00  0.00    +0.000 C 
ATOM     11  C25 UNL     1     148.236 156.653 172.086  0.00  0.00    +0.000 C 
ENDBRANCH   5   8
ENDBRANCH   1   2
BRANCH   1  12
ATOM     12  N2  UNL     1     153.401 159.356 167.984  0.00  0.00    +0.000 NA
ATOM     13  H7  UNL     1     152.615 159.456 167.287  0.00  0.00    +0.000 HD
BRANCH  12  14
ATOM     14  C9  UNL     1     154.564 158.828 167.503  0.00  0.00    +0.000 C 
ATOM     15  C10 UNL     1     154.925 157.398 167.751  0.00  0.00    +0.000 C 
ATOM     16  C11 UNL     1     156.180 157.323 166.902  0.00  0.00    +0.000 A 
ATOM     17  C12 UNL     1     155.965 158.164 165.819  0.00  0.00    +0.000 A 
ATOM     18  C13 UNL     1     154.607 158.783 165.946  0.00  0.00    +0.000 C 
ATOM     19  C14 UNL     1     156.996 158.270 164.895  0.00  0.00    +0.000 A 
ATOM     20  C15 UNL     1     158.175 157.573 165.052  0.00  0.00    +0.000 A 
ATOM     21  C16 UNL     1     158.370 156.747 166.129  0.00  0.00    +0.000 A 
ATOM     22  C17 UNL     1     157.342 156.635 167.054  0.00  0.00    +0.000 A 
ENDBRANCH  12  14
ENDBRANCH   1  12
BRANCH   1  23
ATOM     23  C7  UNL     1     154.147 160.512 170.106  0.00  0.00    +0.000 C 
BRANCH  23  28
ATOM     24  C2  UNL     1     157.734 159.467 169.751  0.00  0.00    +0.000 A 
ATOM     25  C3  UNL     1     157.821 158.476 170.707  0.00  0.00    +0.000 A 
ATOM     26  C4  UNL     1     156.699 158.178 171.463  0.00  0.00    +0.000 A 
ATOM     27  C5  UNL     1     155.539 158.885 171.228  0.00  0.00    +0.000 A 
ATOM     28  N1  UNL     1     155.446 159.874 170.279  0.00  0.00    +0.000 N 
ATOM     29  C6  UNL     1     156.527 160.124 169.587  0.00  0.00    +0.000 A 
ATOM     30  O1  UNL     1     156.518 161.009 168.697  0.00  0.00    +0.000 OA
BRANCH  24  32
ATOM     31  F1  UNL     1     158.651 159.964 167.616  0.00  0.00    +0.000 F 
ATOM     32  C1  UNL     1     158.944 159.807 168.947  0.00  0.00    +0.000 C 
ATOM     33  F2  UNL     1     159.578 160.946 169.447  0.00  0.00    +0.000 F 
ATOM     34  F3  UNL     1     159.834 158.767 169.027  0.00  0.00    +0.000 F 
ENDBRANCH  24  32
ENDBRANCH  23  28
ENDBRANCH   1  23
TORSDOF 7
ENDMDL
MODEL 5
REMARK VINA RESULT:      -7.3      3.805      8.713
REMARK  Name = ./3D_structures\o38_MMV1634393_3D.pdb
REMARK  10 active torsions:
REMARK  status: ('A' for Active; 'I' for Inactive)
REMARK    1  A    between atoms: C1_2  and  C2_5
REMARK    2  A    between atoms: N1_9  and  C7_12
REMARK    3  A    between atoms: C7_12  and  C8_13
REMARK    4  A    between atoms: C8_13  and  N2_14
REMARK    5  A    between atoms: C8_13  and  C18_24
REMARK    6  A    between atoms: N2_14  and  C9_15
REMARK    7  A    between atoms: C21_27  and  C22_28
REMARK    8  A    between atoms: C22_28  and  C23_29
REMARK    9  A    between atoms: C22_28  and  C24_30
REMARK   10  A    between atoms: C22_28  and  C25_31
REMARK                            x       y       z     vdW  Elec       q    Type
REMARK                         _______ _______ _______ _____ _____    ______ ____
ROOT
ATOM      1  C8  UNL     1     160.192 158.483 167.453  0.00  0.00    +0.000 C 
ENDROOT
BRANCH   1   2
ATOM      2  C18 UNL     1     161.667 158.572 167.460  0.00  0.00    +0.000 A 
ATOM      3  C19 UNL     1     162.252 159.831 167.536  0.00  0.00    +0.000 A 
ATOM      4  C20 UNL     1     163.604 160.052 167.688  0.00  0.00    +0.000 A 
ATOM      5  C21 UNL     1     164.406 158.928 167.769  0.00  0.00    +0.000 A 
ATOM      6  C26 UNL     1     163.864 157.690 167.693  0.00  0.00    +0.000 A 
ATOM      7  C27 UNL     1     162.497 157.497 167.538  0.00  0.00    +0.000 A 
BRANCH   5   8
ATOM      8  C22 UNL     1     165.850 159.196 168.056  0.00  0.00    +0.000 C 
ATOM      9  C23 UNL     1     166.699 158.334 167.153  0.00  0.00    +0.000 C 
ATOM     10  C24 UNL     1     166.172 159.019 169.499  0.00  0.00    +0.000 C 
ATOM     11  C25 UNL     1     166.139 160.653 167.670  0.00  0.00    +0.000 C 
ENDBRANCH   5   8
ENDBRANCH   1   2
BRANCH   1  12
ATOM     12  N2  UNL     1     159.561 157.929 168.528  0.00  0.00    +0.000 NA
ATOM     13  H7  UNL     1     159.599 156.881 168.645  0.00  0.00    +0.000 HD
BRANCH  12  14
ATOM     14  C9  UNL     1     158.875 158.614 169.488  0.00  0.00    +0.000 C 
ATOM     15  C10 UNL     1     158.468 160.037 169.281  0.00  0.00    +0.000 C 
ATOM     16  C11 UNL     1     157.646 160.232 170.541  0.00  0.00    +0.000 A 
ATOM     17  C12 UNL     1     157.042 159.010 170.802  0.00  0.00    +0.000 A 
ATOM     18  C13 UNL     1     157.454 158.030 169.747  0.00  0.00    +0.000 C 
ATOM     19  C14 UNL     1     156.237 158.938 171.931  0.00  0.00    +0.000 A 
ATOM     20  C15 UNL     1     156.050 160.031 172.750  0.00  0.00    +0.000 A 
ATOM     21  C16 UNL     1     156.656 161.231 172.477  0.00  0.00    +0.000 A 
ATOM     22  C17 UNL     1     157.459 161.309 171.349  0.00  0.00    +0.000 A 
ENDBRANCH  12  14
ENDBRANCH   1  12
BRANCH   1  23
ATOM     23  C7  UNL     1     159.624 158.590 166.088  0.00  0.00    +0.000 C 
BRANCH  23  28
ATOM     24  C2  UNL     1     155.875 158.638 165.908  0.00  0.00    +0.000 A 
ATOM     25  C3  UNL     1     155.593 157.290 165.825  0.00  0.00    +0.000 A 
ATOM     26  C4  UNL     1     156.644 156.387 165.817  0.00  0.00    +0.000 A 
ATOM     27  C5  UNL     1     157.932 156.874 165.891  0.00  0.00    +0.000 A 
ATOM     28  N1  UNL     1     158.220 158.215 165.971  0.00  0.00    +0.000 N 
ATOM     29  C6  UNL     1     157.199 159.034 165.978  0.00  0.00    +0.000 A 
ATOM     30  O1  UNL     1     157.382 160.273 166.056  0.00  0.00    +0.000 OA
BRANCH  24  32
ATOM     31  F1  UNL     1     154.723 160.384 167.034  0.00  0.00    +0.000 F 
ATOM     32  C1  UNL     1     154.748 159.616 165.898  0.00  0.00    +0.000 C 
ATOM     33  F2  UNL     1     154.794 160.425 164.760  0.00  0.00    +0.000 F 
ATOM     34  F3  UNL     1     153.564 158.925 165.870  0.00  0.00    +0.000 F 
ENDBRANCH  24  32
ENDBRANCH  23  28
ENDBRANCH   1  23
TORSDOF 7
ENDMDL
MODEL 6
REMARK VINA RESULT:      -7.2      2.168      3.430
REMARK  Name = ./3D_structures\o38_MMV1634393_3D.pdb
REMARK  10 active torsions:
REMARK  status: ('A' for Active; 'I' for Inactive)
REMARK    1  A    between atoms: C1_2  and  C2_5
REMARK    2  A    between atoms: N1_9  and  C7_12
REMARK    3  A    between atoms: C7_12  and  C8_13
REMARK    4  A    between atoms: C8_13  and  N2_14
REMARK    5  A    between atoms: C8_13  and  C18_24
REMARK    6  A    between atoms: N2_14  and  C9_15
REMARK    7  A    between atoms: C21_27  and  C22_28
REMARK    8  A    between atoms: C22_28  and  C23_29
REMARK    9  A    between atoms: C22_28  and  C24_30
REMARK   10  A    between atoms: C22_28  and  C25_31
REMARK                            x       y       z     vdW  Elec       q    Type
REMARK                         _______ _______ _______ _____ _____    ______ ____
ROOT
ATOM      1  C8  UNL     1     154.873 158.315 166.497  0.00  0.00    +0.000 C 
ENDROOT
BRANCH   1   2
ATOM      2  C18 UNL     1     154.648 159.596 165.796  0.00  0.00    +0.000 A 
ATOM      3  C19 UNL     1     153.339 160.027 165.613  0.00  0.00    +0.000 A 
ATOM      4  C20 UNL     1     152.991 161.259 165.102  0.00  0.00    +0.000 A 
ATOM      5  C21 UNL     1     154.034 162.100 164.759  0.00  0.00    +0.000 A 
ATOM      6  C26 UNL     1     155.318 161.705 164.922  0.00  0.00    +0.000 A 
ATOM      7  C27 UNL     1     155.640 160.456 165.439  0.00  0.00    +0.000 A 
BRANCH   5   8
ATOM      8  C22 UNL     1     153.628 163.473 164.322  0.00  0.00    +0.000 C 
ATOM      9  C23 UNL     1     153.949 164.454 165.422  0.00  0.00    +0.000 C 
ATOM     10  C24 UNL     1     152.201 163.522 163.897  0.00  0.00    +0.000 C 
ATOM     11  C25 UNL     1     154.504 163.858 163.122  0.00  0.00    +0.000 C 
ENDBRANCH   5   8
ENDBRANCH   1   2
BRANCH   1  12
ATOM     12  N2  UNL     1     155.389 157.264 165.797  0.00  0.00    +0.000 NA
ATOM     13  H7  UNL     1     154.723 156.541 165.414  0.00  0.00    +0.000 HD
BRANCH  12  14
ATOM     14  C9  UNL     1     156.713 157.055 165.536  0.00  0.00    +0.000 C 
ATOM     15  C10 UNL     1     157.766 157.442 166.525  0.00  0.00    +0.000 C 
ATOM     16  C11 UNL     1     158.977 156.869 165.812  0.00  0.00    +0.000 A 
ATOM     17  C12 UNL     1     158.537 155.725 165.161  0.00  0.00    +0.000 A 
ATOM     18  C13 UNL     1     157.076 155.543 165.431  0.00  0.00    +0.000 C 
ATOM     19  C14 UNL     1     159.481 155.025 164.421  0.00  0.00    +0.000 A 
ATOM     20  C15 UNL     1     160.789 155.452 164.338  0.00  0.00    +0.000 A 
ATOM     21  C16 UNL     1     161.205 156.586 164.988  0.00  0.00    +0.000 A 
ATOM     22  C17 UNL     1     160.267 157.287 165.732  0.00  0.00    +0.000 A 
ENDBRANCH  12  14
ENDBRANCH   1  12
BRANCH   1  23
ATOM     23  C7  UNL     1     154.083 158.206 167.747  0.00  0.00    +0.000 C 
BRANCH  23  28
ATOM     24  C2  UNL     1     155.891 159.467 170.785  0.00  0.00    +0.000 A 
ATOM     25  C3  UNL     1     155.283 160.692 170.969  0.00  0.00    +0.000 A 
ATOM     26  C4  UNL     1     154.297 161.089 170.080  0.00  0.00    +0.000 A 
ATOM     27  C5  UNL     1     153.962 160.240 169.046  0.00  0.00    +0.000 A 
ATOM     28  N1  UNL     1     154.564 159.020 168.856  0.00  0.00    +0.000 N 
ATOM     29  C6  UNL     1     155.489 158.684 169.717  0.00  0.00    +0.000 A 
ATOM     30  O1  UNL     1     156.080 157.581 169.613  0.00  0.00    +0.000 OA
BRANCH  24  32
ATOM     31  F1  UNL     1     158.046 158.508 171.069  0.00  0.00    +0.000 F 
ATOM     32  C1  UNL     1     156.967 159.043 171.727  0.00  0.00    +0.000 C 
ATOM     33  F2  UNL     1     157.368 160.103 172.543  0.00  0.00    +0.000 F 
ATOM     34  F3  UNL     1     156.478 158.054 172.540  0.00  0.00    +0.000 F 
ENDBRANCH  24  32
ENDBRANCH  23  28
ENDBRANCH   1  23
TORSDOF 7
ENDMDL
MODEL 7
REMARK VINA RESULT:      -7.1      3.679      8.000
REMARK  Name = ./3D_structures\o38_MMV1634393_3D.pdb
REMARK  10 active torsions:
REMARK  status: ('A' for Active; 'I' for Inactive)
REMARK    1  A    between atoms: C1_2  and  C2_5
REMARK    2  A    between atoms: N1_9  and  C7_12
REMARK    3  A    between atoms: C7_12  and  C8_13
REMARK    4  A    between atoms: C8_13  and  N2_14
REMARK    5  A    between atoms: C8_13  and  C18_24
REMARK    6  A    between atoms: N2_14  and  C9_15
REMARK    7  A    between atoms: C21_27  and  C22_28
REMARK    8  A    between atoms: C22_28  and  C23_29
REMARK    9  A    between atoms: C22_28  and  C24_30
REMARK   10  A    between atoms: C22_28  and  C25_31
REMARK                            x       y       z     vdW  Elec       q    Type
REMARK                         _______ _______ _______ _____ _____    ______ ____
ROOT
ATOM      1  C8  UNL     1     157.173 158.146 166.690  0.00  0.00    +0.000 C 
ENDROOT
BRANCH   1   2
ATOM      2  C18 UNL     1     158.626 157.891 166.782  0.00  0.00    +0.000 A 
ATOM      3  C19 UNL     1     159.249 157.237 165.725  0.00  0.00    +0.000 A 
ATOM      4  C20 UNL     1     160.612 157.058 165.616  0.00  0.00    +0.000 A 
ATOM      5  C21 UNL     1     161.383 157.574 166.641  0.00  0.00    +0.000 A 
ATOM      6  C26 UNL     1     160.803 158.211 167.685  0.00  0.00    +0.000 A 
ATOM      7  C27 UNL     1     159.427 158.377 167.769  0.00  0.00    +0.000 A 
BRANCH   5   8
ATOM      8  C22 UNL     1     162.862 157.473 166.437  0.00  0.00    +0.000 C 
ATOM      9  C23 UNL     1     163.189 156.113 165.869  0.00  0.00    +0.000 C 
ATOM     10  C24 UNL     1     163.618 157.777 167.685  0.00  0.00    +0.000 C 
ATOM     11  C25 UNL     1     163.257 158.501 165.369  0.00  0.00    +0.000 C 
ENDBRANCH   5   8
ENDBRANCH   1   2
BRANCH   1  12
ATOM     12  N2  UNL     1     156.355 157.641 167.659  0.00  0.00    +0.000 NA
ATOM     13  H7  UNL     1     155.948 156.678 167.519  0.00  0.00    +0.000 HD
BRANCH  12  14
ATOM     14  C9  UNL     1     156.008 158.275 168.817  0.00  0.00    +0.000 C 
ATOM     15  C10 UNL     1     154.576 158.409 169.225  0.00  0.00    +0.000 C 
ATOM     16  C11 UNL     1     154.781 159.031 170.594  0.00  0.00    +0.000 A 
ATOM     17  C12 UNL     1     155.954 158.485 171.095  0.00  0.00    +0.000 A 
ATOM     18  C13 UNL     1     156.515 157.530 170.088  0.00  0.00    +0.000 C 
ATOM     19  C14 UNL     1     156.359 158.918 172.351  0.00  0.00    +0.000 A 
ATOM     20  C15 UNL     1     155.628 159.848 173.060  0.00  0.00    +0.000 A 
ATOM     21  C16 UNL     1     154.471 160.377 172.548  0.00  0.00    +0.000 A 
ATOM     22  C17 UNL     1     154.060 159.945 171.296  0.00  0.00    +0.000 A 
ENDBRANCH  12  14
ENDBRANCH   1  12
BRANCH   1  23
ATOM     23  C7  UNL     1     156.748 158.523 165.321  0.00  0.00    +0.000 C 
BRANCH  23  28
ATOM     24  C2  UNL     1     153.946 161.020 165.349  0.00  0.00    +0.000 A 
ATOM     25  C3  UNL     1     154.598 162.159 164.922  0.00  0.00    +0.000 A 
ATOM     26  C4  UNL     1     155.954 162.089 164.644  0.00  0.00    +0.000 A 
ATOM     27  C5  UNL     1     156.597 160.880 164.807  0.00  0.00    +0.000 A 
ATOM     28  N1  UNL     1     155.956 159.743 165.234  0.00  0.00    +0.000 N 
ATOM     29  C6  UNL     1     154.676 159.852 165.484  0.00  0.00    +0.000 A 
ATOM     30  O1  UNL     1     154.019 158.855 165.871  0.00  0.00    +0.000 OA
BRANCH  24  32
ATOM     31  F1  UNL     1     151.732 160.372 164.781  0.00  0.00    +0.000 F 
ATOM     32  C1  UNL     1     152.491 161.095 165.667  0.00  0.00    +0.000 C 
ATOM     33  F2  UNL     1     152.240 160.681 166.978  0.00  0.00    +0.000 F 
ATOM     34  F3  UNL     1     152.080 162.398 165.557  0.00  0.00    +0.000 F 
ENDBRANCH  24  32
ENDBRANCH  23  28
ENDBRANCH   1  23
TORSDOF 7
ENDMDL
MODEL 8
REMARK VINA RESULT:      -7.0      4.888      8.053
REMARK  Name = ./3D_structures\o38_MMV1634393_3D.pdb
REMARK  10 active torsions:
REMARK  status: ('A' for Active; 'I' for Inactive)
REMARK    1  A    between atoms: C1_2  and  C2_5
REMARK    2  A    between atoms: N1_9  and  C7_12
REMARK    3  A    between atoms: C7_12  and  C8_13
REMARK    4  A    between atoms: C8_13  and  N2_14
REMARK    5  A    between atoms: C8_13  and  C18_24
REMARK    6  A    between atoms: N2_14  and  C9_15
REMARK    7  A    between atoms: C21_27  and  C22_28
REMARK    8  A    between atoms: C22_28  and  C23_29
REMARK    9  A    between atoms: C22_28  and  C24_30
REMARK   10  A    between atoms: C22_28  and  C25_31
REMARK                            x       y       z     vdW  Elec       q    Type
REMARK                         _______ _______ _______ _____ _____    ______ ____
ROOT
ATOM      1  C8  UNL     1     152.937 160.150 169.058  0.00  0.00    +0.000 C 
ENDROOT
BRANCH   1   2
ATOM      2  C18 UNL     1     152.220 159.044 169.726  0.00  0.00    +0.000 A 
ATOM      3  C19 UNL     1     151.003 159.322 170.339  0.00  0.00    +0.000 A 
ATOM      4  C20 UNL     1     150.167 158.366 170.876  0.00  0.00    +0.000 A 
ATOM      5  C21 UNL     1     150.594 157.054 170.783  0.00  0.00    +0.000 A 
ATOM      6  C26 UNL     1     151.776 156.755 170.197  0.00  0.00    +0.000 A 
ATOM      7  C27 UNL     1     152.599 157.739 169.665  0.00  0.00    +0.000 A 
BRANCH   5   8
ATOM      8  C22 UNL     1     149.613 156.030 171.264  0.00  0.00    +0.000 C 
ATOM      9  C23 UNL     1     150.269 154.671 171.240  0.00  0.00    +0.000 C 
ATOM     10  C24 UNL     1     148.340 156.075 170.493  0.00  0.00    +0.000 C 
ATOM     11  C25 UNL     1     149.300 156.340 172.734  0.00  0.00    +0.000 C 
ENDBRANCH   5   8
ENDBRANCH   1   2
BRANCH   1  12
ATOM     12  N2  UNL     1     153.056 160.131 167.699  0.00  0.00    +0.000 NA
ATOM     13  H7  UNL     1     153.254 159.208 167.227  0.00  0.00    +0.000 HD
BRANCH  12  14
ATOM     14  C9  UNL     1     152.937 161.212 166.875  0.00  0.00    +0.000 C 
ATOM     15  C10 UNL     1     153.046 161.068 165.390  0.00  0.00    +0.000 C 
ATOM     16  C11 UNL     1     152.701 162.491 164.992  0.00  0.00    +0.000 A 
ATOM     17  C12 UNL     1     151.775 162.940 165.923  0.00  0.00    +0.000 A 
ATOM     18  C13 UNL     1     151.515 161.848 166.915  0.00  0.00    +0.000 C 
ATOM     19  C14 UNL     1     151.313 164.240 165.770  0.00  0.00    +0.000 A 
ATOM     20  C15 UNL     1     151.757 165.043 164.740  0.00  0.00    +0.000 A 
ATOM     21  C16 UNL     1     152.673 164.582 163.829  0.00  0.00    +0.000 A 
ATOM     22  C17 UNL     1     153.135 163.283 163.976  0.00  0.00    +0.000 A 
ENDBRANCH  12  14
ENDBRANCH   1  12
BRANCH   1  23
ATOM     23  C7  UNL     1     153.825 160.892 169.985  0.00  0.00    +0.000 C 
BRANCH  23  28
ATOM     24  C2  UNL     1     157.050 158.981 170.152  0.00  0.00    +0.000 A 
ATOM     25  C3  UNL     1     157.118 158.687 171.498  0.00  0.00    +0.000 A 
ATOM     26  C4  UNL     1     156.107 159.135 172.332  0.00  0.00    +0.000 A 
ATOM     27  C5  UNL     1     155.070 159.859 171.780  0.00  0.00    +0.000 A 
ATOM     28  N1  UNL     1     154.997 160.157 170.441  0.00  0.00    +0.000 N 
ATOM     29  C6  UNL     1     155.972 159.714 169.689  0.00  0.00    +0.000 A 
ATOM     30  O1  UNL     1     155.971 159.940 168.454  0.00  0.00    +0.000 OA
BRANCH  24  32
ATOM     31  F1  UNL     1     157.737 157.508 168.419  0.00  0.00    +0.000 F 
ATOM     32  C1  UNL     1     158.147 158.517 169.253  0.00  0.00    +0.000 C 
ATOM     33  F2  UNL     1     158.675 159.579 168.514  0.00  0.00    +0.000 F 
ATOM     34  F3  UNL     1     159.159 158.001 170.020  0.00  0.00    +0.000 F 
ENDBRANCH  24  32
ENDBRANCH  23  28
ENDBRANCH   1  23
TORSDOF 7
ENDMDL
MODEL 9
REMARK VINA RESULT:      -7.0      3.529      6.965
REMARK  Name = ./3D_structures\o38_MMV1634393_3D.pdb
REMARK  10 active torsions:
REMARK  status: ('A' for Active; 'I' for Inactive)
REMARK    1  A    between atoms: C1_2  and  C2_5
REMARK    2  A    between atoms: N1_9  and  C7_12
REMARK    3  A    between atoms: C7_12  and  C8_13
REMARK    4  A    between atoms: C8_13  and  N2_14
REMARK    5  A    between atoms: C8_13  and  C18_24
REMARK    6  A    between atoms: N2_14  and  C9_15
REMARK    7  A    between atoms: C21_27  and  C22_28
REMARK    8  A    between atoms: C22_28  and  C23_29
REMARK    9  A    between atoms: C22_28  and  C24_30
REMARK   10  A    between atoms: C22_28  and  C25_31
REMARK                            x       y       z     vdW  Elec       q    Type
REMARK                         _______ _______ _______ _____ _____    ______ ____
ROOT
ATOM      1  C8  UNL     1     156.076 157.264 168.051  0.00  0.00    +0.000 C 
ENDROOT
BRANCH   1   2
ATOM      2  C18 UNL     1     157.524 157.497 167.876  0.00  0.00    +0.000 A 
ATOM      3  C19 UNL     1     158.124 157.071 166.696  0.00  0.00    +0.000 A 
ATOM      4  C20 UNL     1     159.428 157.345 166.344  0.00  0.00    +0.000 A 
ATOM      5  C21 UNL     1     160.164 158.094 167.243  0.00  0.00    +0.000 A 
ATOM      6  C26 UNL     1     159.608 158.518 168.402  0.00  0.00    +0.000 A 
ATOM      7  C27 UNL     1     158.291 158.226 168.732  0.00  0.00    +0.000 A 
BRANCH   5   8
ATOM      8  C22 UNL     1     161.535 158.477 166.781  0.00  0.00    +0.000 C 
ATOM      9  C23 UNL     1     161.844 159.874 167.262  0.00  0.00    +0.000 C 
ATOM     10  C24 UNL     1     161.688 158.323 165.307  0.00  0.00    +0.000 C 
ATOM     11  C25 UNL     1     162.538 157.544 167.472  0.00  0.00    +0.000 C 
ENDBRANCH   5   8
ENDBRANCH   1   2
BRANCH   1  12
ATOM     12  N2  UNL     1     155.225 157.634 167.051  0.00  0.00    +0.000 NA
ATOM     13  H7  UNL     1     154.609 156.894 166.618  0.00  0.00    +0.000 HD
BRANCH  12  14
ATOM     14  C9  UNL     1     155.089 158.895 166.548  0.00  0.00    +0.000 C 
ATOM     15  C10 UNL     1     155.743 159.290 165.262  0.00  0.00    +0.000 C 
ATOM     16  C11 UNL     1     155.157 160.683 165.120  0.00  0.00    +0.000 A 
ATOM     17  C12 UNL     1     153.878 160.621 165.655  0.00  0.00    +0.000 A 
ATOM     18  C13 UNL     1     153.622 159.228 166.142  0.00  0.00    +0.000 C 
ATOM     19  C14 UNL     1     153.140 161.796 165.647  0.00  0.00    +0.000 A 
ATOM     20  C15 UNL     1     153.657 162.966 165.133  0.00  0.00    +0.000 A 
ATOM     21  C16 UNL     1     154.924 163.008 164.609  0.00  0.00    +0.000 A 
ATOM     22  C17 UNL     1     155.665 161.836 164.612  0.00  0.00    +0.000 A 
ENDBRANCH  12  14
ENDBRANCH   1  12
BRANCH   1  23
ATOM     23  C7  UNL     1     155.699 157.080 169.473  0.00  0.00    +0.000 C 
BRANCH  23  28
ATOM     24  C2  UNL     1     152.825 159.314 170.391  0.00  0.00    +0.000 A 
ATOM     25  C3  UNL     1     153.469 160.292 171.121  0.00  0.00    +0.000 A 
ATOM     26  C4  UNL     1     154.837 160.192 171.310  0.00  0.00    +0.000 A 
ATOM     27  C5  UNL     1     155.502 159.117 170.760  0.00  0.00    +0.000 A 
ATOM     28  N1  UNL     1     154.868 158.138 170.034  0.00  0.00    +0.000 N 
ATOM     29  C6  UNL     1     153.576 158.270 169.878  0.00  0.00    +0.000 A 
ATOM     30  O1  UNL     1     152.927 157.420 169.220  0.00  0.00    +0.000 OA
BRANCH  24  32
ATOM     31  F1  UNL     1     151.010 159.593 168.884  0.00  0.00    +0.000 F 
ATOM     32  C1  UNL     1     151.348 159.405 170.200  0.00  0.00    +0.000 C 
ATOM     33  F2  UNL     1     150.704 158.279 170.716  0.00  0.00    +0.000 F 
ATOM     34  F3  UNL     1     150.882 160.500 170.881  0.00  0.00    +0.000 F 
ENDBRANCH  24  32
ENDBRANCH  23  28
ENDBRANCH   1  23
TORSDOF 7
ENDMDL
