MODEL 1
REMARK VINA RESULT:      -7.1      0.000      0.000
REMARK  Name = ./3D_structures\o42_MMV1593544_3D.pdb
REMARK  16 active torsions:
REMARK  status: ('A' for Active; 'I' for Inactive)
REMARK    1  A    between atoms: C1_2  and  C8_10
REMARK    2  A    between atoms: N1_3  and  C2_4
REMARK    3  A    between atoms: C8_10  and  N2_11
REMARK    4  A    between atoms: C8_10  and  C28_33
REMARK    5  A    between atoms: N2_11  and  C9_12
REMARK    6  A    between atoms: C12_15  and  C13_16
REMARK    7  A    between atoms: C13_16  and  C14_17
REMARK    8  A    between atoms: C13_16  and  C15_18
REMARK    9  A    between atoms: C18_21  and  C19_23
REMARK   10  A    between atoms: C19_23  and  C20_24
REMARK   11  A    between atoms: C30_35  and  O5_43
REMARK   12  A    between atoms: C31_36  and  O3_37
REMARK   13  A    between atoms: O3_37  and  C32_38
REMARK   14  A    between atoms: C33_39  and  O4_41
REMARK   15  A    between atoms: O4_41  and  C35_42
REMARK   16  A    between atoms: O5_43  and  C36_44
REMARK                            x       y       z     vdW  Elec       q    Type
REMARK                         _______ _______ _______ _____ _____    ______ ____
ROOT
ATOM      1  C8  UNL     1     149.759 164.514 170.460  0.00  0.00    +0.000 C 
ENDROOT
BRANCH   1   2
ATOM      2  C28 UNL     1     148.888 164.827 169.311  0.00  0.00    +0.000 A 
ATOM      3  C29 UNL     1     149.406 165.255 168.111  0.00  0.00    +0.000 A 
ATOM      4  C30 UNL     1     148.608 165.551 167.030  0.00  0.00    +0.000 A 
ATOM      5  C31 UNL     1     147.217 165.415 167.152  0.00  0.00    +0.000 A 
ATOM      6  C33 UNL     1     146.675 164.992 168.334  0.00  0.00    +0.000 A 
ATOM      7  C34 UNL     1     147.524 164.708 169.385  0.00  0.00    +0.000 A 
BRANCH   5   8
ATOM      8  O3  UNL     1     146.477 165.728 166.035  0.00  0.00    +0.000 OA
ATOM      9  C32 UNL     1     145.874 166.954 165.766  0.00  0.00    +0.000 C 
ENDBRANCH   5   8
BRANCH   6  10
ATOM     10  O4  UNL     1     145.303 164.858 168.456  0.00  0.00    +0.000 OA
ATOM     11  C35 UNL     1     144.725 163.580 168.249  0.00  0.00    +0.000 C 
ENDBRANCH   6  10
BRANCH   4  12
ATOM     12  O5  UNL     1     149.173 165.975 165.854  0.00  0.00    +0.000 OA
ATOM     13  C36 UNL     1     150.482 165.576 165.522  0.00  0.00    +0.000 C 
ENDBRANCH   4  12
ENDBRANCH   1   2
BRANCH   1  15
ATOM     14  O1  UNL     1     150.442 165.447 172.527  0.00  0.00    +0.000 OA
ATOM     15  C1  UNL     1     150.108 165.659 171.313  0.00  0.00    +0.000 C 
ATOM     16  N1  UNL     1     150.106 167.017 170.877  0.00  0.00    +0.000 N 
ATOM     17  H1  UNL     1     149.847 167.270 169.897  0.00  0.00    +0.000 HD
BRANCH  16  18
ATOM     18  C2  UNL     1     150.485 168.035 171.850  0.00  0.00    +0.000 C 
ATOM     19  C3  UNL     1     149.540 169.208 171.846  0.00  0.00    +0.000 C 
ATOM     20  C4  UNL     1     150.220 170.470 172.348  0.00  0.00    +0.000 C 
ATOM     21  C5  UNL     1     151.269 170.129 173.385  0.00  0.00    +0.000 C 
ATOM     22  C6  UNL     1     152.381 169.378 172.696  0.00  0.00    +0.000 C 
ATOM     23  C7  UNL     1     151.876 168.550 171.530  0.00  0.00    +0.000 C 
ENDBRANCH  16  18
ENDBRANCH   1  15
BRANCH   1  24
ATOM     24  N2  UNL     1     150.933 163.721 170.114  0.00  0.00    +0.000 N 
ATOM     25  C18 UNL     1     152.191 164.282 169.779  0.00  0.00    +0.000 C 
ATOM     26  O2  UNL     1     152.292 165.528 169.729  0.00  0.00    +0.000 OA
BRANCH  24  27
ATOM     27  C9  UNL     1     150.853 162.308 170.105  0.00  0.00    +0.000 A 
ATOM     28  C10 UNL     1     151.413 161.559 171.104  0.00  0.00    +0.000 A 
ATOM     29  C11 UNL     1     151.347 160.155 171.077  0.00  0.00    +0.000 A 
ATOM     30  C12 UNL     1     150.707 159.516 170.027  0.00  0.00    +0.000 A 
ATOM     31  C16 UNL     1     150.143 160.271 169.024  0.00  0.00    +0.000 A 
ATOM     32  C17 UNL     1     150.221 161.669 169.071  0.00  0.00    +0.000 A 
BRANCH  30  33
ATOM     33  C13 UNL     1     150.645 158.043 169.984  0.00  0.00    +0.000 C 
ATOM     34  C14 UNL     1     151.974 157.364 169.999  0.00  0.00    +0.000 C 
ATOM     35  C15 UNL     1     149.866 157.601 171.230  0.00  0.00    +0.000 C 
ENDBRANCH  30  33
ENDBRANCH  24  27
BRANCH  25  36
ATOM     36  C19 UNL     1     153.417 163.520 169.480  0.00  0.00    +0.000 C 
BRANCH  36  37
ATOM     37  C20 UNL     1     153.421 163.020 168.075  0.00  0.00    +0.000 A 
ATOM     38  C21 UNL     1     153.270 163.828 166.948  0.00  0.00    +0.000 A 
ATOM     39  N3  UNL     1     153.306 163.056 165.847  0.00  0.00    +0.000 N 
ATOM     40  C22 UNL     1     153.475 161.764 166.198  0.00  0.00    +0.000 A 
ATOM     41  C23 UNL     1     153.547 161.745 167.585  0.00  0.00    +0.000 A 
ATOM     42  C24 UNL     1     153.722 160.521 168.193  0.00  0.00    +0.000 A 
ATOM     43  C25 UNL     1     153.820 159.360 167.453  0.00  0.00    +0.000 A 
ATOM     44  C26 UNL     1     153.744 159.414 166.077  0.00  0.00    +0.000 A 
ATOM     45  C27 UNL     1     153.571 160.621 165.435  0.00  0.00    +0.000 A 
ATOM     46  H28 UNL     1     153.215 163.415 164.872  0.00  0.00    +0.000 HD
ENDBRANCH  36  37
ENDBRANCH  25  36
ENDBRANCH   1  24
TORSDOF 11
ENDMDL
MODEL 2
REMARK VINA RESULT:      -7.0      0.096      2.029
REMARK  Name = ./3D_structures\o42_MMV1593544_3D.pdb
REMARK  16 active torsions:
REMARK  status: ('A' for Active; 'I' for Inactive)
REMARK    1  A    between atoms: C1_2  and  C8_10
REMARK    2  A    between atoms: N1_3  and  C2_4
REMARK    3  A    between atoms: C8_10  and  N2_11
REMARK    4  A    between atoms: C8_10  and  C28_33
REMARK    5  A    between atoms: N2_11  and  C9_12
REMARK    6  A    between atoms: C12_15  and  C13_16
REMARK    7  A    between atoms: C13_16  and  C14_17
REMARK    8  A    between atoms: C13_16  and  C15_18
REMARK    9  A    between atoms: C18_21  and  C19_23
REMARK   10  A    between atoms: C19_23  and  C20_24
REMARK   11  A    between atoms: C30_35  and  O5_43
REMARK   12  A    between atoms: C31_36  and  O3_37
REMARK   13  A    between atoms: O3_37  and  C32_38
REMARK   14  A    between atoms: C33_39  and  O4_41
REMARK   15  A    between atoms: O4_41  and  C35_42
REMARK   16  A    between atoms: O5_43  and  C36_44
REMARK                            x       y       z     vdW  Elec       q    Type
REMARK                         _______ _______ _______ _____ _____    ______ ____
ROOT
ATOM      1  C8  UNL     1     149.746 164.467 170.418  0.00  0.00    +0.000 C 
ENDROOT
BRANCH   1   2
ATOM      2  C28 UNL     1     148.894 164.803 169.261  0.00  0.00    +0.000 A 
ATOM      3  C29 UNL     1     147.524 164.695 169.322  0.00  0.00    +0.000 A 
ATOM      4  C30 UNL     1     146.715 165.003 168.252  0.00  0.00    +0.000 A 
ATOM      5  C31 UNL     1     147.303 165.441 167.056  0.00  0.00    +0.000 A 
ATOM      6  C33 UNL     1     148.663 165.557 166.969  0.00  0.00    +0.000 A 
ATOM      7  C34 UNL     1     149.425 165.234 168.074  0.00  0.00    +0.000 A 
BRANCH   5   8
ATOM      8  O3  UNL     1     146.439 165.732 166.026  0.00  0.00    +0.000 OA
ATOM      9  C32 UNL     1     145.933 166.990 165.708  0.00  0.00    +0.000 C 
ENDBRANCH   5   8
BRANCH   6  10
ATOM     10  O4  UNL     1     149.245 165.988 165.789  0.00  0.00    +0.000 OA
ATOM     11  C35 UNL     1     150.555 165.542 165.477  0.00  0.00    +0.000 C 
ENDBRANCH   6  10
BRANCH   4  12
ATOM     12  O5  UNL     1     145.353 164.879 168.362  0.00  0.00    +0.000 OA
ATOM     13  C36 UNL     1     144.758 163.606 168.287  0.00  0.00    +0.000 C 
ENDBRANCH   4  12
ENDBRANCH   1   2
BRANCH   1  15
ATOM     14  O1  UNL     1     150.371 165.363 172.520  0.00  0.00    +0.000 OA
ATOM     15  C1  UNL     1     150.084 165.595 171.297  0.00  0.00    +0.000 C 
ATOM     16  N1  UNL     1     150.122 166.958 170.878  0.00  0.00    +0.000 N 
ATOM     17  H1  UNL     1     149.902 167.227 169.893  0.00  0.00    +0.000 HD
BRANCH  16  18
ATOM     18  C2  UNL     1     150.484 167.957 171.876  0.00  0.00    +0.000 C 
ATOM     19  C3  UNL     1     149.591 169.168 171.821  0.00  0.00    +0.000 C 
ATOM     20  C4  UNL     1     150.291 170.400 172.369  0.00  0.00    +0.000 C 
ATOM     21  C5  UNL     1     151.261 170.014 173.466  0.00  0.00    +0.000 C 
ATOM     22  C6  UNL     1     152.380 169.218 172.841  0.00  0.00    +0.000 C 
ATOM     23  C7  UNL     1     151.912 168.414 171.643  0.00  0.00    +0.000 C 
ENDBRANCH  16  18
ENDBRANCH   1  15
BRANCH   1  24
ATOM     24  N2  UNL     1     150.923 163.676 170.077  0.00  0.00    +0.000 N 
ATOM     25  C18 UNL     1     152.191 164.239 169.784  0.00  0.00    +0.000 C 
ATOM     26  O2  UNL     1     152.300 165.485 169.771  0.00  0.00    +0.000 OA
BRANCH  24  27
ATOM     27  C9  UNL     1     150.836 162.265 170.027  0.00  0.00    +0.000 A 
ATOM     28  C10 UNL     1     150.176 161.630 169.010  0.00  0.00    +0.000 A 
ATOM     29  C11 UNL     1     150.075 160.228 168.979  0.00  0.00    +0.000 A 
ATOM     30  C12 UNL     1     150.649 159.475 169.989  0.00  0.00    +0.000 A 
ATOM     31  C16 UNL     1     151.313 160.114 171.011  0.00  0.00    +0.000 A 
ATOM     32  C17 UNL     1     151.401 161.513 171.022  0.00  0.00    +0.000 A 
BRANCH  30  33
ATOM     33  C13 UNL     1     150.536 158.004 169.972  0.00  0.00    +0.000 C 
ATOM     34  C14 UNL     1     151.835 157.279 170.098  0.00  0.00    +0.000 C 
ATOM     35  C15 UNL     1     149.654 157.618 171.167  0.00  0.00    +0.000 C 
ENDBRANCH  30  33
ENDBRANCH  24  27
BRANCH  25  36
ATOM     36  C19 UNL     1     153.420 163.479 169.493  0.00  0.00    +0.000 C 
BRANCH  36  37
ATOM     37  C20 UNL     1     153.441 162.995 168.082  0.00  0.00    +0.000 A 
ATOM     38  C21 UNL     1     153.328 163.818 166.962  0.00  0.00    +0.000 A 
ATOM     39  N3  UNL     1     153.369 163.059 165.853  0.00  0.00    +0.000 N 
ATOM     40  C22 UNL     1     153.506 161.760 166.192  0.00  0.00    +0.000 A 
ATOM     41  C23 UNL     1     153.550 161.723 167.579  0.00  0.00    +0.000 A 
ATOM     42  C24 UNL     1     153.689 160.489 168.176  0.00  0.00    +0.000 A 
ATOM     43  C25 UNL     1     153.777 159.334 167.423  0.00  0.00    +0.000 A 
ATOM     44  C26 UNL     1     153.729 159.406 166.047  0.00  0.00    +0.000 A 
ATOM     45  C27 UNL     1     153.592 160.624 165.417  0.00  0.00    +0.000 A 
ATOM     46  H28 UNL     1     153.305 163.431 164.881  0.00  0.00    +0.000 HD
ENDBRANCH  36  37
ENDBRANCH  25  36
ENDBRANCH   1  24
TORSDOF 11
ENDMDL
MODEL 3
REMARK VINA RESULT:      -6.9      3.542      6.585
REMARK  Name = ./3D_structures\o42_MMV1593544_3D.pdb
REMARK  16 active torsions:
REMARK  status: ('A' for Active; 'I' for Inactive)
REMARK    1  A    between atoms: C1_2  and  C8_10
REMARK    2  A    between atoms: N1_3  and  C2_4
REMARK    3  A    between atoms: C8_10  and  N2_11
REMARK    4  A    between atoms: C8_10  and  C28_33
REMARK    5  A    between atoms: N2_11  and  C9_12
REMARK    6  A    between atoms: C12_15  and  C13_16
REMARK    7  A    between atoms: C13_16  and  C14_17
REMARK    8  A    between atoms: C13_16  and  C15_18
REMARK    9  A    between atoms: C18_21  and  C19_23
REMARK   10  A    between atoms: C19_23  and  C20_24
REMARK   11  A    between atoms: C30_35  and  O5_43
REMARK   12  A    between atoms: C31_36  and  O3_37
REMARK   13  A    between atoms: O3_37  and  C32_38
REMARK   14  A    between atoms: C33_39  and  O4_41
REMARK   15  A    between atoms: O4_41  and  C35_42
REMARK   16  A    between atoms: O5_43  and  C36_44
REMARK                            x       y       z     vdW  Elec       q    Type
REMARK                         _______ _______ _______ _____ _____    ______ ____
ROOT
ATOM      1  C8  UNL     1     151.949 160.167 168.938  0.00  0.00    +0.000 C 
ENDROOT
BRANCH   1   2
ATOM      2  C28 UNL     1     150.838 161.100 168.670  0.00  0.00    +0.000 A 
ATOM      3  C29 UNL     1     149.675 160.680 168.065  0.00  0.00    +0.000 A 
ATOM      4  C30 UNL     1     148.631 161.536 167.807  0.00  0.00    +0.000 A 
ATOM      5  C31 UNL     1     148.749 162.887 168.170  0.00  0.00    +0.000 A 
ATOM      6  C33 UNL     1     149.894 163.331 168.773  0.00  0.00    +0.000 A 
ATOM      7  C34 UNL     1     150.910 162.427 169.008  0.00  0.00    +0.000 A 
BRANCH   5   8
ATOM      8  O3  UNL     1     147.669 163.689 167.884  0.00  0.00    +0.000 OA
ATOM      9  C32 UNL     1     147.552 164.551 166.796  0.00  0.00    +0.000 C 
ENDBRANCH   5   8
BRANCH   6  10
ATOM     10  O4  UNL     1     150.013 164.662 169.131  0.00  0.00    +0.000 OA
ATOM     11  C35 UNL     1     149.646 165.047 170.446  0.00  0.00    +0.000 C 
ENDBRANCH   6  10
BRANCH   4  12
ATOM     12  O5  UNL     1     147.492 161.069 167.201  0.00  0.00    +0.000 OA
ATOM     13  C36 UNL     1     147.122 159.719 167.353  0.00  0.00    +0.000 C 
ENDBRANCH   4  12
ENDBRANCH   1   2
BRANCH   1  15
ATOM     14  O1  UNL     1     152.064 160.339 171.298  0.00  0.00    +0.000 OA
ATOM     15  C1  UNL     1     152.686 160.411 170.185  0.00  0.00    +0.000 C 
ATOM     16  N1  UNL     1     154.077 160.725 170.249  0.00  0.00    +0.000 N 
ATOM     17  H1  UNL     1     154.655 160.799 169.382  0.00  0.00    +0.000 HD
BRANCH  16  18
ATOM     18  C2  UNL     1     154.658 160.932 171.570  0.00  0.00    +0.000 C 
ATOM     19  C3  UNL     1     155.666 162.051 171.581  0.00  0.00    +0.000 C 
ATOM     20  C4  UNL     1     156.678 161.876 172.701  0.00  0.00    +0.000 C 
ATOM     21  C5  UNL     1     156.037 161.195 173.892  0.00  0.00    +0.000 C 
ATOM     22  C6  UNL     1     155.699 159.779 173.495  0.00  0.00    +0.000 C 
ATOM     23  C7  UNL     1     155.358 159.663 172.021  0.00  0.00    +0.000 C 
ENDBRANCH  16  18
ENDBRANCH   1  15
BRANCH   1  24
ATOM     24  N2  UNL     1     152.849 159.978 167.806  0.00  0.00    +0.000 N 
ATOM     25  C18 UNL     1     153.663 158.830 167.631  0.00  0.00    +0.000 C 
ATOM     26  O2  UNL     1     153.646 157.949 168.520  0.00  0.00    +0.000 OA
BRANCH  24  27
ATOM     27  C9  UNL     1     152.941 160.972 166.804  0.00  0.00    +0.000 A 
ATOM     28  C10 UNL     1     153.746 162.067 166.962  0.00  0.00    +0.000 A 
ATOM     29  C11 UNL     1     153.816 163.061 165.971  0.00  0.00    +0.000 A 
ATOM     30  C12 UNL     1     153.062 162.935 164.815  0.00  0.00    +0.000 A 
ATOM     31  C16 UNL     1     152.253 161.832 164.656  0.00  0.00    +0.000 A 
ATOM     32  C17 UNL     1     152.199 160.854 165.658  0.00  0.00    +0.000 A 
BRANCH  30  33
ATOM     33  C13 UNL     1     153.118 163.980 163.776  0.00  0.00    +0.000 C 
ATOM     34  C14 UNL     1     152.934 165.372 164.282  0.00  0.00    +0.000 C 
ATOM     35  C15 UNL     1     154.508 163.883 163.133  0.00  0.00    +0.000 C 
ENDBRANCH  30  33
ENDBRANCH  24  27
BRANCH  25  36
ATOM     36  C19 UNL     1     154.541 158.569 166.477  0.00  0.00    +0.000 C 
BRANCH  36  37
ATOM     37  C20 UNL     1     155.905 158.150 166.912  0.00  0.00    +0.000 A 
ATOM     38  C21 UNL     1     156.497 156.929 166.589  0.00  0.00    +0.000 A 
ATOM     39  N3  UNL     1     157.716 156.871 167.153  0.00  0.00    +0.000 N 
ATOM     40  C22 UNL     1     157.960 158.007 167.838  0.00  0.00    +0.000 A 
ATOM     41  C23 UNL     1     156.831 158.801 167.686  0.00  0.00    +0.000 A 
ATOM     42  C24 UNL     1     156.836 160.033 168.302  0.00  0.00    +0.000 A 
ATOM     43  C25 UNL     1     157.920 160.460 169.045  0.00  0.00    +0.000 A 
ATOM     44  C26 UNL     1     159.025 159.646 169.176  0.00  0.00    +0.000 A 
ATOM     45  C27 UNL     1     159.055 158.407 168.571  0.00  0.00    +0.000 A 
ATOM     46  H28 UNL     1     158.368 156.061 167.065  0.00  0.00    +0.000 HD
ENDBRANCH  36  37
ENDBRANCH  25  36
ENDBRANCH   1  24
TORSDOF 11
ENDMDL
MODEL 4
REMARK VINA RESULT:      -6.9      3.521      6.490
REMARK  Name = ./3D_structures\o42_MMV1593544_3D.pdb
REMARK  16 active torsions:
REMARK  status: ('A' for Active; 'I' for Inactive)
REMARK    1  A    between atoms: C1_2  and  C8_10
REMARK    2  A    between atoms: N1_3  and  C2_4
REMARK    3  A    between atoms: C8_10  and  N2_11
REMARK    4  A    between atoms: C8_10  and  C28_33
REMARK    5  A    between atoms: N2_11  and  C9_12
REMARK    6  A    between atoms: C12_15  and  C13_16
REMARK    7  A    between atoms: C13_16  and  C14_17
REMARK    8  A    between atoms: C13_16  and  C15_18
REMARK    9  A    between atoms: C18_21  and  C19_23
REMARK   10  A    between atoms: C19_23  and  C20_24
REMARK   11  A    between atoms: C30_35  and  O5_43
REMARK   12  A    between atoms: C31_36  and  O3_37
REMARK   13  A    between atoms: O3_37  and  C32_38
REMARK   14  A    between atoms: C33_39  and  O4_41
REMARK   15  A    between atoms: O4_41  and  C35_42
REMARK   16  A    between atoms: O5_43  and  C36_44
REMARK                            x       y       z     vdW  Elec       q    Type
REMARK                         _______ _______ _______ _____ _____    ______ ____
ROOT
ATOM      1  C8  UNL     1     151.879 160.148 168.956  0.00  0.00    +0.000 C 
ENDROOT
BRANCH   1   2
ATOM      2  C28 UNL     1     150.751 161.059 168.684  0.00  0.00    +0.000 A 
ATOM      3  C29 UNL     1     150.797 162.388 169.040  0.00  0.00    +0.000 A 
ATOM      4  C30 UNL     1     149.754 163.250 168.795  0.00  0.00    +0.000 A 
ATOM      5  C31 UNL     1     148.600 162.763 168.162  0.00  0.00    +0.000 A 
ATOM      6  C33 UNL     1     148.528 161.446 167.798  0.00  0.00    +0.000 A 
ATOM      7  C34 UNL     1     149.605 160.627 168.069  0.00  0.00    +0.000 A 
BRANCH   5   8
ATOM      8  O3  UNL     1     147.595 163.677 167.947  0.00  0.00    +0.000 OA
ATOM      9  C32 UNL     1     147.334 164.347 166.754  0.00  0.00    +0.000 C 
ENDBRANCH   5   8
BRANCH   6  10
ATOM     10  O4  UNL     1     147.391 160.964 167.175  0.00  0.00    +0.000 OA
ATOM     11  C35 UNL     1     147.141 159.568 167.205  0.00  0.00    +0.000 C 
ENDBRANCH   6  10
BRANCH   4  12
ATOM     12  O5  UNL     1     149.848 164.567 169.169  0.00  0.00    +0.000 OA
ATOM     13  C36 UNL     1     149.690 164.923 170.522  0.00  0.00    +0.000 C 
ENDBRANCH   4  12
ENDBRANCH   1   2
BRANCH   1  15
ATOM     14  O1  UNL     1     151.993 160.351 171.313  0.00  0.00    +0.000 OA
ATOM     15  C1  UNL     1     152.615 160.414 170.200  0.00  0.00    +0.000 C 
ATOM     16  N1  UNL     1     154.003 160.738 170.260  0.00  0.00    +0.000 N 
ATOM     17  H1  UNL     1     154.580 160.805 169.392  0.00  0.00    +0.000 HD
BRANCH  16  18
ATOM     18  C2  UNL     1     154.583 160.966 171.578  0.00  0.00    +0.000 C 
ATOM     19  C3  UNL     1     155.608 162.069 171.567  0.00  0.00    +0.000 C 
ATOM     20  C4  UNL     1     156.613 161.904 172.695  0.00  0.00    +0.000 C 
ATOM     21  C5  UNL     1     155.957 161.261 173.898  0.00  0.00    +0.000 C 
ATOM     22  C6  UNL     1     155.598 159.842 173.533  0.00  0.00    +0.000 C 
ATOM     23  C7  UNL     1     155.261 159.697 172.061  0.00  0.00    +0.000 C 
ENDBRANCH  16  18
ENDBRANCH   1  15
BRANCH   1  24
ATOM     24  N2  UNL     1     152.781 159.968 167.823  0.00  0.00    +0.000 N 
ATOM     25  C18 UNL     1     153.617 158.835 167.656  0.00  0.00    +0.000 C 
ATOM     26  O2  UNL     1     153.621 157.961 168.551  0.00  0.00    +0.000 OA
BRANCH  24  27
ATOM     27  C9  UNL     1     152.850 160.955 166.812  0.00  0.00    +0.000 A 
ATOM     28  C10 UNL     1     152.117 160.845 165.661  0.00  0.00    +0.000 A 
ATOM     29  C11 UNL     1     152.207 161.819 164.652  0.00  0.00    +0.000 A 
ATOM     30  C12 UNL     1     153.048 162.908 164.820  0.00  0.00    +0.000 A 
ATOM     31  C16 UNL     1     153.784 163.018 165.978  0.00  0.00    +0.000 A 
ATOM     32  C17 UNL     1     153.678 162.034 166.971  0.00  0.00    +0.000 A 
BRANCH  30  33
ATOM     33  C13 UNL     1     153.159 163.928 163.761  0.00  0.00    +0.000 C 
ATOM     34  C14 UNL     1     152.752 165.303 164.176  0.00  0.00    +0.000 C 
ATOM     35  C15 UNL     1     154.636 163.970 163.346  0.00  0.00    +0.000 C 
ENDBRANCH  30  33
ENDBRANCH  24  27
BRANCH  25  36
ATOM     36  C19 UNL     1     154.497 158.583 166.501  0.00  0.00    +0.000 C 
BRANCH  36  37
ATOM     37  C20 UNL     1     155.856 158.146 166.935  0.00  0.00    +0.000 A 
ATOM     38  C21 UNL     1     156.448 156.934 166.580  0.00  0.00    +0.000 A 
ATOM     39  N3  UNL     1     157.662 156.855 167.153  0.00  0.00    +0.000 N 
ATOM     40  C22 UNL     1     157.902 157.968 167.877  0.00  0.00    +0.000 A 
ATOM     41  C23 UNL     1     156.776 158.770 167.739  0.00  0.00    +0.000 A 
ATOM     42  C24 UNL     1     156.778 159.982 168.394  0.00  0.00    +0.000 A 
ATOM     43  C25 UNL     1     157.856 160.381 169.160  0.00  0.00    +0.000 A 
ATOM     44  C26 UNL     1     158.958 159.560 169.276  0.00  0.00    +0.000 A 
ATOM     45  C27 UNL     1     158.990 158.342 168.633  0.00  0.00    +0.000 A 
ATOM     46  H28 UNL     1     158.313 156.047 167.046  0.00  0.00    +0.000 HD
ENDBRANCH  36  37
ENDBRANCH  25  36
ENDBRANCH   1  24
TORSDOF 11
ENDMDL
MODEL 5
REMARK VINA RESULT:      -6.7      3.858      6.158
REMARK  Name = ./3D_structures\o42_MMV1593544_3D.pdb
REMARK  16 active torsions:
REMARK  status: ('A' for Active; 'I' for Inactive)
REMARK    1  A    between atoms: C1_2  and  C8_10
REMARK    2  A    between atoms: N1_3  and  C2_4
REMARK    3  A    between atoms: C8_10  and  N2_11
REMARK    4  A    between atoms: C8_10  and  C28_33
REMARK    5  A    between atoms: N2_11  and  C9_12
REMARK    6  A    between atoms: C12_15  and  C13_16
REMARK    7  A    between atoms: C13_16  and  C14_17
REMARK    8  A    between atoms: C13_16  and  C15_18
REMARK    9  A    between atoms: C18_21  and  C19_23
REMARK   10  A    between atoms: C19_23  and  C20_24
REMARK   11  A    between atoms: C30_35  and  O5_43
REMARK   12  A    between atoms: C31_36  and  O3_37
REMARK   13  A    between atoms: O3_37  and  C32_38
REMARK   14  A    between atoms: C33_39  and  O4_41
REMARK   15  A    between atoms: O4_41  and  C35_42
REMARK   16  A    between atoms: O5_43  and  C36_44
REMARK                            x       y       z     vdW  Elec       q    Type
REMARK                         _______ _______ _______ _____ _____    ______ ____
ROOT
ATOM      1  C8  UNL     1     152.576 160.462 171.699  0.00  0.00    +0.000 C 
ENDROOT
BRANCH   1   2
ATOM      2  C28 UNL     1     151.482 159.856 170.916  0.00  0.00    +0.000 A 
ATOM      3  C29 UNL     1     150.947 158.633 171.253  0.00  0.00    +0.000 A 
ATOM      4  C30 UNL     1     149.928 158.054 170.533  0.00  0.00    +0.000 A 
ATOM      5  C31 UNL     1     149.413 158.728 169.416  0.00  0.00    +0.000 A 
ATOM      6  C33 UNL     1     149.926 159.944 169.059  0.00  0.00    +0.000 A 
ATOM      7  C34 UNL     1     150.948 160.478 169.817  0.00  0.00    +0.000 A 
BRANCH   5   8
ATOM      8  O3  UNL     1     148.396 158.093 168.741  0.00  0.00    +0.000 OA
ATOM      9  C32 UNL     1     147.037 158.384 168.840  0.00  0.00    +0.000 C 
ENDBRANCH   5   8
BRANCH   6  10
ATOM     10  O4  UNL     1     149.420 160.610 167.956  0.00  0.00    +0.000 OA
ATOM     11  C35 UNL     1     148.967 161.944 168.118  0.00  0.00    +0.000 C 
ENDBRANCH   6  10
BRANCH   4  12
ATOM     12  O5  UNL     1     149.429 156.832 170.910  0.00  0.00    +0.000 OA
ATOM     13  C36 UNL     1     149.065 156.608 172.251  0.00  0.00    +0.000 C 
ENDBRANCH   4  12
ENDBRANCH   1   2
BRANCH   1  15
ATOM     14  O1  UNL     1     153.370 162.521 170.841  0.00  0.00    +0.000 OA
ATOM     15  C1  UNL     1     152.618 161.930 171.686  0.00  0.00    +0.000 C 
ATOM     16  N1  UNL     1     151.862 162.764 172.563  0.00  0.00    +0.000 N 
ATOM     17  H1  UNL     1     151.222 162.355 173.280  0.00  0.00    +0.000 HD
BRANCH  16  18
ATOM     18  C2  UNL     1     152.014 164.206 172.415  0.00  0.00    +0.000 C 
ATOM     19  C3  UNL     1     152.203 164.899 173.738  0.00  0.00    +0.000 C 
ATOM     20  C4  UNL     1     151.752 166.349 173.676  0.00  0.00    +0.000 C 
ATOM     21  C5  UNL     1     151.985 166.916 172.292  0.00  0.00    +0.000 C 
ATOM     22  C6  UNL     1     151.053 166.213 171.336  0.00  0.00    +0.000 C 
ATOM     23  C7  UNL     1     150.775 164.783 171.755  0.00  0.00    +0.000 C 
ENDBRANCH  16  18
ENDBRANCH   1  15
BRANCH   1  24
ATOM     24  N2  UNL     1     153.887 159.881 171.431  0.00  0.00    +0.000 N 
ATOM     25  C18 UNL     1     154.903 159.749 172.410  0.00  0.00    +0.000 C 
ATOM     26  O2  UNL     1     154.685 160.196 173.558  0.00  0.00    +0.000 OA
BRANCH  24  27
ATOM     27  C9  UNL     1     154.199 159.410 170.134  0.00  0.00    +0.000 A 
ATOM     28  C10 UNL     1     154.185 158.073 169.842  0.00  0.00    +0.000 A 
ATOM     29  C11 UNL     1     154.517 157.611 168.556  0.00  0.00    +0.000 A 
ATOM     30  C12 UNL     1     154.863 158.518 167.568  0.00  0.00    +0.000 A 
ATOM     31  C16 UNL     1     154.875 159.862 167.862  0.00  0.00    +0.000 A 
ATOM     32  C17 UNL     1     154.541 160.300 169.151  0.00  0.00    +0.000 A 
BRANCH  30  33
ATOM     33  C13 UNL     1     155.225 158.041 166.220  0.00  0.00    +0.000 C 
ATOM     34  C14 UNL     1     155.882 159.065 165.354  0.00  0.00    +0.000 C 
ATOM     35  C15 UNL     1     156.206 156.878 166.415  0.00  0.00    +0.000 C 
ENDBRANCH  30  33
ENDBRANCH  24  27
BRANCH  25  36
ATOM     36  C19 UNL     1     156.219 159.117 172.201  0.00  0.00    +0.000 C 
BRANCH  36  37
ATOM     37  C20 UNL     1     157.095 159.955 171.332  0.00  0.00    +0.000 A 
ATOM     38  C21 UNL     1     157.282 161.329 171.489  0.00  0.00    +0.000 A 
ATOM     39  N3  UNL     1     158.118 161.769 170.532  0.00  0.00    +0.000 N 
ATOM     40  C22 UNL     1     158.495 160.741 169.743  0.00  0.00    +0.000 A 
ATOM     41  C23 UNL     1     157.858 159.613 170.245  0.00  0.00    +0.000 A 
ATOM     42  C24 UNL     1     158.088 158.418 169.601  0.00  0.00    +0.000 A 
ATOM     43  C25 UNL     1     158.918 158.344 168.499  0.00  0.00    +0.000 A 
ATOM     44  C26 UNL     1     159.535 159.483 168.027  0.00  0.00    +0.000 A 
ATOM     45  C27 UNL     1     159.329 160.696 168.648  0.00  0.00    +0.000 A 
ATOM     46  H28 UNL     1     158.422 162.761 170.425  0.00  0.00    +0.000 HD
ENDBRANCH  36  37
ENDBRANCH  25  36
ENDBRANCH   1  24
TORSDOF 11
ENDMDL
MODEL 6
REMARK VINA RESULT:      -6.5      3.487      6.594
REMARK  Name = ./3D_structures\o42_MMV1593544_3D.pdb
REMARK  16 active torsions:
REMARK  status: ('A' for Active; 'I' for Inactive)
REMARK    1  A    between atoms: C1_2  and  C8_10
REMARK    2  A    between atoms: N1_3  and  C2_4
REMARK    3  A    between atoms: C8_10  and  N2_11
REMARK    4  A    between atoms: C8_10  and  C28_33
REMARK    5  A    between atoms: N2_11  and  C9_12
REMARK    6  A    between atoms: C12_15  and  C13_16
REMARK    7  A    between atoms: C13_16  and  C14_17
REMARK    8  A    between atoms: C13_16  and  C15_18
REMARK    9  A    between atoms: C18_21  and  C19_23
REMARK   10  A    between atoms: C19_23  and  C20_24
REMARK   11  A    between atoms: C30_35  and  O5_43
REMARK   12  A    between atoms: C31_36  and  O3_37
REMARK   13  A    between atoms: O3_37  and  C32_38
REMARK   14  A    between atoms: C33_39  and  O4_41
REMARK   15  A    between atoms: O4_41  and  C35_42
REMARK   16  A    between atoms: O5_43  and  C36_44
REMARK                            x       y       z     vdW  Elec       q    Type
REMARK                         _______ _______ _______ _____ _____    ______ ____
ROOT
ATOM      1  C8  UNL     1     151.030 160.551 168.575  0.00  0.00    +0.000 C 
ENDROOT
BRANCH   1   2
ATOM      2  C28 UNL     1     150.216 161.757 168.333  0.00  0.00    +0.000 A 
ATOM      3  C29 UNL     1     150.535 162.653 167.339  0.00  0.00    +0.000 A 
ATOM      4  C30 UNL     1     149.787 163.783 167.101  0.00  0.00    +0.000 A 
ATOM      5  C31 UNL     1     148.661 164.037 167.898  0.00  0.00    +0.000 A 
ATOM      6  C33 UNL     1     148.322 163.162 168.894  0.00  0.00    +0.000 A 
ATOM      7  C34 UNL     1     149.108 162.045 169.087  0.00  0.00    +0.000 A 
BRANCH   5   8
ATOM      8  O3  UNL     1     147.959 165.183 167.609  0.00  0.00    +0.000 OA
ATOM      9  C32 UNL     1     146.883 165.288 166.730  0.00  0.00    +0.000 C 
ENDBRANCH   5   8
BRANCH   6  10
ATOM     10  O4  UNL     1     147.212 163.411 169.682  0.00  0.00    +0.000 OA
ATOM     11  C35 UNL     1     145.976 162.816 169.320  0.00  0.00    +0.000 C 
ENDBRANCH   6  10
BRANCH   4  12
ATOM     12  O5  UNL     1     150.147 164.647 166.097  0.00  0.00    +0.000 OA
ATOM     13  C36 UNL     1     151.501 164.989 165.920  0.00  0.00    +0.000 C 
ENDBRANCH   4  12
ENDBRANCH   1   2
BRANCH   1  15
ATOM     14  O1  UNL     1     150.733 160.085 170.878  0.00  0.00    +0.000 OA
ATOM     15  C1  UNL     1     150.569 159.692 169.674  0.00  0.00    +0.000 C 
ATOM     16  N1  UNL     1     149.934 158.427 169.494  0.00  0.00    +0.000 N 
ATOM     17  H1  UNL     1     149.763 158.039 168.540  0.00  0.00    +0.000 HD
BRANCH  16  18
ATOM     18  C2  UNL     1     149.531 157.702 170.693  0.00  0.00    +0.000 C 
ATOM     19  C3  UNL     1     150.446 156.545 170.996  0.00  0.00    +0.000 C 
ATOM     20  C4  UNL     1     149.735 155.471 171.802  0.00  0.00    +0.000 C 
ATOM     21  C5  UNL     1     148.696 156.092 172.710  0.00  0.00    +0.000 C 
ATOM     22  C6  UNL     1     147.602 156.667 171.844  0.00  0.00    +0.000 C 
ATOM     23  C7  UNL     1     148.127 157.156 170.508  0.00  0.00    +0.000 C 
ENDBRANCH  16  18
ENDBRANCH   1  15
BRANCH   1  24
ATOM     24  N2  UNL     1     152.463 160.810 168.656  0.00  0.00    +0.000 N 
ATOM     25  C18 UNL     1     153.033 161.838 169.450  0.00  0.00    +0.000 C 
ATOM     26  O2  UNL     1     152.264 162.597 170.081  0.00  0.00    +0.000 OA
BRANCH  24  27
ATOM     27  C9  UNL     1     153.368 160.011 167.919  0.00  0.00    +0.000 A 
ATOM     28  C10 UNL     1     153.963 160.479 166.779  0.00  0.00    +0.000 A 
ATOM     29  C11 UNL     1     154.844 159.671 166.040  0.00  0.00    +0.000 A 
ATOM     30  C12 UNL     1     155.119 158.383 166.468  0.00  0.00    +0.000 A 
ATOM     31  C16 UNL     1     154.522 157.913 167.616  0.00  0.00    +0.000 A 
ATOM     32  C17 UNL     1     153.646 158.736 168.336  0.00  0.00    +0.000 A 
BRANCH  30  33
ATOM     33  C13 UNL     1     156.033 157.523 165.692  0.00  0.00    +0.000 C 
ATOM     34  C14 UNL     1     157.067 158.262 164.910  0.00  0.00    +0.000 C 
ATOM     35  C15 UNL     1     156.751 156.621 166.704  0.00  0.00    +0.000 C 
ENDBRANCH  30  33
ENDBRANCH  24  27
BRANCH  25  36
ATOM     36  C19 UNL     1     154.475 162.098 169.609  0.00  0.00    +0.000 C 
BRANCH  36  37
ATOM     37  C20 UNL     1     155.138 161.029 170.410  0.00  0.00    +0.000 A 
ATOM     38  C21 UNL     1     154.727 160.623 171.680  0.00  0.00    +0.000 A 
ATOM     39  N3  UNL     1     155.551 159.655 172.118  0.00  0.00    +0.000 N 
ATOM     40  C22 UNL     1     156.496 159.400 171.189  0.00  0.00    +0.000 A 
ATOM     41  C23 UNL     1     156.235 160.257 170.127  0.00  0.00    +0.000 A 
ATOM     42  C24 UNL     1     157.075 160.186 169.037  0.00  0.00    +0.000 A 
ATOM     43  C25 UNL     1     158.134 159.301 169.003  0.00  0.00    +0.000 A 
ATOM     44  C26 UNL     1     158.365 158.464 170.075  0.00  0.00    +0.000 A 
ATOM     45  C27 UNL     1     157.544 158.507 171.181  0.00  0.00    +0.000 A 
ATOM     46  H28 UNL     1     155.463 159.179 173.042  0.00  0.00    +0.000 HD
ENDBRANCH  36  37
ENDBRANCH  25  36
ENDBRANCH   1  24
TORSDOF 11
ENDMDL
MODEL 7
REMARK VINA RESULT:      -6.4      3.174      6.061
REMARK  Name = ./3D_structures\o42_MMV1593544_3D.pdb
REMARK  16 active torsions:
REMARK  status: ('A' for Active; 'I' for Inactive)
REMARK    1  A    between atoms: C1_2  and  C8_10
REMARK    2  A    between atoms: N1_3  and  C2_4
REMARK    3  A    between atoms: C8_10  and  N2_11
REMARK    4  A    between atoms: C8_10  and  C28_33
REMARK    5  A    between atoms: N2_11  and  C9_12
REMARK    6  A    between atoms: C12_15  and  C13_16
REMARK    7  A    between atoms: C13_16  and  C14_17
REMARK    8  A    between atoms: C13_16  and  C15_18
REMARK    9  A    between atoms: C18_21  and  C19_23
REMARK   10  A    between atoms: C19_23  and  C20_24
REMARK   11  A    between atoms: C30_35  and  O5_43
REMARK   12  A    between atoms: C31_36  and  O3_37
REMARK   13  A    between atoms: O3_37  and  C32_38
REMARK   14  A    between atoms: C33_39  and  O4_41
REMARK   15  A    between atoms: O4_41  and  C35_42
REMARK   16  A    between atoms: O5_43  and  C36_44
REMARK                            x       y       z     vdW  Elec       q    Type
REMARK                         _______ _______ _______ _____ _____    ______ ____
ROOT
ATOM      1  C8  UNL     1     151.820 162.806 168.655  0.00  0.00    +0.000 C 
ENDROOT
BRANCH   1   2
ATOM      2  C28 UNL     1     150.368 162.713 168.411  0.00  0.00    +0.000 A 
ATOM      3  C29 UNL     1     149.801 161.585 167.862  0.00  0.00    +0.000 A 
ATOM      4  C30 UNL     1     148.450 161.483 167.628  0.00  0.00    +0.000 A 
ATOM      5  C31 UNL     1     147.616 162.562 167.956  0.00  0.00    +0.000 A 
ATOM      6  C33 UNL     1     148.153 163.696 168.502  0.00  0.00    +0.000 A 
ATOM      7  C34 UNL     1     149.516 163.743 168.716  0.00  0.00    +0.000 A 
BRANCH   5   8
ATOM      8  O3  UNL     1     146.276 162.395 167.695  0.00  0.00    +0.000 OA
ATOM      9  C32 UNL     1     145.598 162.833 166.560  0.00  0.00    +0.000 C 
ENDBRANCH   5   8
BRANCH   6  10
ATOM     10  O4  UNL     1     147.333 164.762 168.826  0.00  0.00    +0.000 OA
ATOM     11  C35 UNL     1     147.336 165.240 170.161  0.00  0.00    +0.000 C 
ENDBRANCH   6  10
BRANCH   4  12
ATOM     12  O5  UNL     1     147.933 160.337 167.078  0.00  0.00    +0.000 OA
ATOM     13  C36 UNL     1     147.586 159.256 167.911  0.00  0.00    +0.000 C 
ENDBRANCH   4  12
ENDBRANCH   1   2
BRANCH   1  15
ATOM     14  O1  UNL     1     153.402 164.366 167.834  0.00  0.00    +0.000 OA
ATOM     15  C1  UNL     1     152.602 163.407 167.566  0.00  0.00    +0.000 C 
ATOM     16  N1  UNL     1     152.538 162.989 166.204  0.00  0.00    +0.000 N 
ATOM     17  H1  UNL     1     151.910 162.210 165.906  0.00  0.00    +0.000 HD
BRANCH  16  18
ATOM     18  C2  UNL     1     153.387 163.688 165.246  0.00  0.00    +0.000 C 
ATOM     19  C3  UNL     1     152.736 163.817 163.894  0.00  0.00    +0.000 C 
ATOM     20  C4  UNL     1     153.772 163.954 162.790  0.00  0.00    +0.000 C 
ATOM     21  C5  UNL     1     154.997 164.682 163.302  0.00  0.00    +0.000 C 
ATOM     22  C6  UNL     1     155.676 163.797 164.317  0.00  0.00    +0.000 C 
ATOM     23  C7  UNL     1     154.689 162.927 165.072  0.00  0.00    +0.000 C 
ENDBRANCH  16  18
ENDBRANCH   1  15
BRANCH   1  24
ATOM     24  N2  UNL     1     152.421 161.565 169.130  0.00  0.00    +0.000 N 
ATOM     25  C18 UNL     1     152.121 160.976 170.384  0.00  0.00    +0.000 C 
ATOM     26  O2  UNL     1     151.332 161.574 171.149  0.00  0.00    +0.000 OA
BRANCH  24  27
ATOM     27  C9  UNL     1     153.359 160.880 168.322  0.00  0.00    +0.000 A 
ATOM     28  C10 UNL     1     152.986 159.812 167.552  0.00  0.00    +0.000 A 
ATOM     29  C11 UNL     1     153.928 159.123 166.769  0.00  0.00    +0.000 A 
ATOM     30  C12 UNL     1     155.252 159.527 166.772  0.00  0.00    +0.000 A 
ATOM     31  C16 UNL     1     155.627 160.602 167.545  0.00  0.00    +0.000 A 
ATOM     32  C17 UNL     1     154.671 161.274 168.320  0.00  0.00    +0.000 A 
BRANCH  30  33
ATOM     33  C13 UNL     1     156.250 158.802 165.963  0.00  0.00    +0.000 C 
ATOM     34  C14 UNL     1     157.649 158.887 166.476  0.00  0.00    +0.000 C 
ATOM     35  C15 UNL     1     155.828 157.326 165.966  0.00  0.00    +0.000 C 
ENDBRANCH  30  33
ENDBRANCH  24  27
BRANCH  25  36
ATOM     36  C19 UNL     1     152.658 159.696 170.881  0.00  0.00    +0.000 C 
BRANCH  36  37
ATOM     37  C20 UNL     1     154.077 159.832 171.319  0.00  0.00    +0.000 A 
ATOM     38  C21 UNL     1     154.529 160.766 172.251  0.00  0.00    +0.000 A 
ATOM     39  N3  UNL     1     155.858 160.626 172.403  0.00  0.00    +0.000 N 
ATOM     40  C22 UNL     1     156.308 159.633 171.607  0.00  0.00    +0.000 A 
ATOM     41  C23 UNL     1     155.197 159.141 170.935  0.00  0.00    +0.000 A 
ATOM     42  C24 UNL     1     155.400 158.105 170.050  0.00  0.00    +0.000 A 
ATOM     43  C25 UNL     1     156.660 157.579 169.838  0.00  0.00    +0.000 A 
ATOM     44  C26 UNL     1     157.742 158.091 170.522  0.00  0.00    +0.000 A 
ATOM     45  C27 UNL     1     157.575 159.127 171.416  0.00  0.00    +0.000 A 
ATOM     46  H28 UNL     1     156.443 161.205 173.043  0.00  0.00    +0.000 HD
ENDBRANCH  36  37
ENDBRANCH  25  36
ENDBRANCH   1  24
TORSDOF 11
ENDMDL
MODEL 8
REMARK VINA RESULT:      -6.4      3.383      5.538
REMARK  Name = ./3D_structures\o42_MMV1593544_3D.pdb
REMARK  16 active torsions:
REMARK  status: ('A' for Active; 'I' for Inactive)
REMARK    1  A    between atoms: C1_2  and  C8_10
REMARK    2  A    between atoms: N1_3  and  C2_4
REMARK    3  A    between atoms: C8_10  and  N2_11
REMARK    4  A    between atoms: C8_10  and  C28_33
REMARK    5  A    between atoms: N2_11  and  C9_12
REMARK    6  A    between atoms: C12_15  and  C13_16
REMARK    7  A    between atoms: C13_16  and  C14_17
REMARK    8  A    between atoms: C13_16  and  C15_18
REMARK    9  A    between atoms: C18_21  and  C19_23
REMARK   10  A    between atoms: C19_23  and  C20_24
REMARK   11  A    between atoms: C30_35  and  O5_43
REMARK   12  A    between atoms: C31_36  and  O3_37
REMARK   13  A    between atoms: O3_37  and  C32_38
REMARK   14  A    between atoms: C33_39  and  O4_41
REMARK   15  A    between atoms: O4_41  and  C35_42
REMARK   16  A    between atoms: O5_43  and  C36_44
REMARK                            x       y       z     vdW  Elec       q    Type
REMARK                         _______ _______ _______ _____ _____    ______ ____
ROOT
ATOM      1  C8  UNL     1     150.956 162.343 169.025  0.00  0.00    +0.000 C 
ENDROOT
BRANCH   1   2
ATOM      2  C28 UNL     1     149.517 162.210 168.729  0.00  0.00    +0.000 A 
ATOM      3  C29 UNL     1     148.588 163.066 169.275  0.00  0.00    +0.000 A 
ATOM      4  C30 UNL     1     147.243 162.955 169.009  0.00  0.00    +0.000 A 
ATOM      5  C31 UNL     1     146.797 161.936 168.154  0.00  0.00    +0.000 A 
ATOM      6  C33 UNL     1     147.700 161.072 167.598  0.00  0.00    +0.000 A 
ATOM      7  C34 UNL     1     149.037 161.230 167.900  0.00  0.00    +0.000 A 
BRANCH   5   8
ATOM      8  O3  UNL     1     145.441 161.881 167.932  0.00  0.00    +0.000 OA
ATOM      9  C32 UNL     1     144.770 162.381 166.819  0.00  0.00    +0.000 C 
ENDBRANCH   5   8
BRANCH   6  10
ATOM     10  O4  UNL     1     147.262 160.065 166.756  0.00  0.00    +0.000 OA
ATOM     11  C35 UNL     1     146.977 158.791 167.311  0.00  0.00    +0.000 C 
ENDBRANCH   6  10
BRANCH   4  12
ATOM     12  O5  UNL     1     146.355 163.833 169.579  0.00  0.00    +0.000 OA
ATOM     13  C36 UNL     1     146.188 165.117 169.026  0.00  0.00    +0.000 C 
ENDBRANCH   4  12
ENDBRANCH   1   2
BRANCH   1  15
ATOM     14  O1  UNL     1     152.398 164.222 169.002  0.00  0.00    +0.000 OA
ATOM     15  C1  UNL     1     151.641 163.442 168.332  0.00  0.00    +0.000 C 
ATOM     16  N1  UNL     1     151.526 163.707 166.935  0.00  0.00    +0.000 N 
ATOM     17  H1  UNL     1     150.929 163.112 166.319  0.00  0.00    +0.000 HD
BRANCH  16  18
ATOM     18  C2  UNL     1     152.279 164.836 166.401  0.00  0.00    +0.000 C 
ATOM     19  C3  UNL     1     151.396 165.826 165.689  0.00  0.00    +0.000 C 
ATOM     20  C4  UNL     1     152.173 166.617 164.650  0.00  0.00    +0.000 C 
ATOM     21  C5  UNL     1     153.608 166.807 165.094  0.00  0.00    +0.000 C 
ATOM     22  C6  UNL     1     154.282 165.458 165.089  0.00  0.00    +0.000 C 
ATOM     23  C7  UNL     1     153.316 164.334 165.413  0.00  0.00    +0.000 C 
ENDBRANCH  16  18
ENDBRANCH   1  15
BRANCH   1  24
ATOM     24  N2  UNL     1     151.700 161.092 168.922  0.00  0.00    +0.000 N 
ATOM     25  C18 UNL     1     151.509 159.990 169.793  0.00  0.00    +0.000 C 
ATOM     26  O2  UNL     1     150.692 160.109 170.733  0.00  0.00    +0.000 OA
BRANCH  24  27
ATOM     27  C9  UNL     1     152.672 160.931 167.907  0.00  0.00    +0.000 A 
ATOM     28  C10 UNL     1     153.956 161.374 168.077  0.00  0.00    +0.000 A 
ATOM     29  C11 UNL     1     154.911 161.230 167.055  0.00  0.00    +0.000 A 
ATOM     30  C12 UNL     1     154.553 160.630 165.859  0.00  0.00    +0.000 A 
ATOM     31  C16 UNL     1     153.262 160.183 165.690  0.00  0.00    +0.000 A 
ATOM     32  C17 UNL     1     152.326 160.339 166.721  0.00  0.00    +0.000 A 
BRANCH  30  33
ATOM     33  C13 UNL     1     155.544 160.486 164.777  0.00  0.00    +0.000 C 
ATOM     34  C14 UNL     1     156.247 161.750 164.404  0.00  0.00    +0.000 C 
ATOM     35  C15 UNL     1     156.594 159.484 165.275  0.00  0.00    +0.000 C 
ENDBRANCH  30  33
ENDBRANCH  24  27
BRANCH  25  36
ATOM     36  C19 UNL     1     152.194 158.689 169.691  0.00  0.00    +0.000 C 
BRANCH  36  37
ATOM     37  C20 UNL     1     153.633 158.798 170.066  0.00  0.00    +0.000 A 
ATOM     38  C21 UNL     1     154.112 159.517 171.161  0.00  0.00    +0.000 A 
ATOM     39  N3  UNL     1     155.453 159.418 171.198  0.00  0.00    +0.000 N 
ATOM     40  C22 UNL     1     155.886 158.660 170.169  0.00  0.00    +0.000 A 
ATOM     41  C23 UNL     1     154.751 158.275 169.467  0.00  0.00    +0.000 A 
ATOM     42  C24 UNL     1     154.933 157.482 168.355  0.00  0.00    +0.000 A 
ATOM     43  C25 UNL     1     156.195 157.088 167.954  0.00  0.00    +0.000 A 
ATOM     44  C26 UNL     1     157.301 157.488 168.674  0.00  0.00    +0.000 A 
ATOM     45  C27 UNL     1     157.155 158.281 169.793  0.00  0.00    +0.000 A 
ATOM     46  H28 UNL     1     156.057 159.865 171.921  0.00  0.00    +0.000 HD
ENDBRANCH  36  37
ENDBRANCH  25  36
ENDBRANCH   1  24
TORSDOF 11
ENDMDL
MODEL 9
REMARK VINA RESULT:      -6.4      3.553      6.360
REMARK  Name = ./3D_structures\o42_MMV1593544_3D.pdb
REMARK  16 active torsions:
REMARK  status: ('A' for Active; 'I' for Inactive)
REMARK    1  A    between atoms: C1_2  and  C8_10
REMARK    2  A    between atoms: N1_3  and  C2_4
REMARK    3  A    between atoms: C8_10  and  N2_11
REMARK    4  A    between atoms: C8_10  and  C28_33
REMARK    5  A    between atoms: N2_11  and  C9_12
REMARK    6  A    between atoms: C12_15  and  C13_16
REMARK    7  A    between atoms: C13_16  and  C14_17
REMARK    8  A    between atoms: C13_16  and  C15_18
REMARK    9  A    between atoms: C18_21  and  C19_23
REMARK   10  A    between atoms: C19_23  and  C20_24
REMARK   11  A    between atoms: C30_35  and  O5_43
REMARK   12  A    between atoms: C31_36  and  O3_37
REMARK   13  A    between atoms: O3_37  and  C32_38
REMARK   14  A    between atoms: C33_39  and  O4_41
REMARK   15  A    between atoms: O4_41  and  C35_42
REMARK   16  A    between atoms: O5_43  and  C36_44
REMARK                            x       y       z     vdW  Elec       q    Type
REMARK                         _______ _______ _______ _____ _____    ______ ____
ROOT
ATOM      1  C8  UNL     1     150.585 160.332 168.228  0.00  0.00    +0.000 C 
ENDROOT
BRANCH   1   2
ATOM      2  C28 UNL     1     151.797 160.830 167.549  0.00  0.00    +0.000 A 
ATOM      3  C29 UNL     1     153.002 160.174 167.654  0.00  0.00    +0.000 A 
ATOM      4  C30 UNL     1     154.141 160.626 167.029  0.00  0.00    +0.000 A 
ATOM      5  C31 UNL     1     154.078 161.796 166.257  0.00  0.00    +0.000 A 
ATOM      6  C33 UNL     1     152.892 162.468 166.137  0.00  0.00    +0.000 A 
ATOM      7  C34 UNL     1     151.782 161.969 166.786  0.00  0.00    +0.000 A 
BRANCH   5   8
ATOM      8  O3  UNL     1     155.251 162.193 165.660  0.00  0.00    +0.000 OA
ATOM      9  C32 UNL     1     156.144 163.141 166.153  0.00  0.00    +0.000 C 
ENDBRANCH   5   8
BRANCH   6  10
ATOM     10  O4  UNL     1     152.828 163.623 165.377  0.00  0.00    +0.000 OA
ATOM     11  C35 UNL     1     152.223 163.559 164.096  0.00  0.00    +0.000 C 
ENDBRANCH   6  10
BRANCH   4  12
ATOM     12  O5  UNL     1     155.319 159.935 167.164  0.00  0.00    +0.000 OA
ATOM     13  C36 UNL     1     155.481 158.695 166.520  0.00  0.00    +0.000 C 
ENDBRANCH   4  12
ENDBRANCH   1   2
BRANCH   1  15
ATOM     14  O1  UNL     1     148.464 160.854 167.314  0.00  0.00    +0.000 OA
ATOM     15  C1  UNL     1     149.401 161.194 168.112  0.00  0.00    +0.000 C 
ATOM     16  N1  UNL     1     149.213 162.405 168.842  0.00  0.00    +0.000 N 
ATOM     17  H1  UNL     1     149.934 162.747 169.516  0.00  0.00    +0.000 HD
BRANCH  16  18
ATOM     18  C2  UNL     1     147.975 163.140 168.615  0.00  0.00    +0.000 C 
ATOM     19  C3  UNL     1     148.093 164.118 167.475  0.00  0.00    +0.000 C 
ATOM     20  C4  UNL     1     147.106 165.264 167.622  0.00  0.00    +0.000 C 
ATOM     21  C5  UNL     1     145.843 164.789 168.308  0.00  0.00    +0.000 C 
ATOM     22  C6  UNL     1     146.190 164.435 169.733  0.00  0.00    +0.000 C 
ATOM     23  C7  UNL     1     147.609 163.918 169.866  0.00  0.00    +0.000 C 
ENDBRANCH  16  18
ENDBRANCH   1  15
BRANCH   1  24
ATOM     24  N2  UNL     1     150.811 159.906 169.605  0.00  0.00    +0.000 N 
ATOM     25  C18 UNL     1     151.344 160.750 170.612  0.00  0.00    +0.000 C 
ATOM     26  O2  UNL     1     151.686 161.911 170.295  0.00  0.00    +0.000 OA
BRANCH  24  27
ATOM     27  C9  UNL     1     150.489 158.586 169.997  0.00  0.00    +0.000 A 
ATOM     28  C10 UNL     1     149.191 158.201 170.197  0.00  0.00    +0.000 A 
ATOM     29  C11 UNL     1     148.880 156.893 170.607  0.00  0.00    +0.000 A 
ATOM     30  C12 UNL     1     149.899 155.976 170.813  0.00  0.00    +0.000 A 
ATOM     31  C16 UNL     1     151.204 156.364 170.611  0.00  0.00    +0.000 A 
ATOM     32  C17 UNL     1     151.490 157.674 170.202  0.00  0.00    +0.000 A 
BRANCH  30  33
ATOM     33  C13 UNL     1     149.583 154.606 171.256  0.00  0.00    +0.000 C 
ATOM     34  C14 UNL     1     149.870 153.544 170.247  0.00  0.00    +0.000 C 
ATOM     35  C15 UNL     1     150.448 154.336 172.495  0.00  0.00    +0.000 C 
ENDBRANCH  30  33
ENDBRANCH  24  27
BRANCH  25  36
ATOM     36  C19 UNL     1     151.534 160.382 172.027  0.00  0.00    +0.000 C 
BRANCH  36  37
ATOM     37  C20 UNL     1     152.921 160.682 172.487  0.00  0.00    +0.000 A 
ATOM     38  C21 UNL     1     153.236 161.553 173.530  0.00  0.00    +0.000 A 
ATOM     39  N3  UNL     1     154.573 161.602 173.671  0.00  0.00    +0.000 N 
ATOM     40  C22 UNL     1     155.160 160.797 172.761  0.00  0.00    +0.000 A 
ATOM     41  C23 UNL     1     154.129 160.226 172.027  0.00  0.00    +0.000 A 
ATOM     42  C24 UNL     1     154.478 159.351 171.021  0.00  0.00    +0.000 A 
ATOM     43  C25 UNL     1     155.801 159.057 170.753  0.00  0.00    +0.000 A 
ATOM     44  C26 UNL     1     156.801 159.642 171.502  0.00  0.00    +0.000 A 
ATOM     45  C27 UNL     1     156.487 160.521 172.516  0.00  0.00    +0.000 A 
ATOM     46  H28 UNL     1     155.070 162.181 174.382  0.00  0.00    +0.000 HD
ENDBRANCH  36  37
ENDBRANCH  25  36
ENDBRANCH   1  24
TORSDOF 11
ENDMDL
