MODEL 1
REMARK VINA RESULT:      -5.6      0.000      0.000
REMARK  Name = ./3D_structures\o43_MMV1593521_3D.pdb
REMARK  8 active torsions:
REMARK  status: ('A' for Active; 'I' for Inactive)
REMARK    1  A    between atoms: N1_7  and  C5_8
REMARK    2  A    between atoms: C6_10  and  C7_11
REMARK    3  A    between atoms: C7_11  and  O2_12
REMARK    4  A    between atoms: C8_13  and  O4_16
REMARK    5  A    between atoms: C9_14  and  O3_15
REMARK    6  A    between atoms: N3_21  and  C13_22
REMARK    7  A    between atoms: C13_22  and  C14_23
REMARK    8  A    between atoms: C13_22  and  C15_24
REMARK                            x       y       z     vdW  Elec       q    Type
REMARK                         _______ _______ _______ _____ _____    ______ ____
ROOT
ATOM      1 CL1  UNL     1     147.999 158.000 168.787  0.00  0.00    +0.000 Cl
ATOM      2  C1  UNL     1     147.736 159.665 168.247  0.00  0.00    +0.000 A 
ATOM      3  C2  UNL     1     146.447 160.108 168.046  0.00  0.00    +0.000 A 
ATOM      4 CL2  UNL     1     145.077 159.050 168.319  0.00  0.00    +0.000 Cl
ATOM      5  C3  UNL     1     146.245 161.425 167.620  0.00  0.00    +0.000 A 
ATOM      6  C4  UNL     1     147.290 162.282 167.396  0.00  0.00    +0.000 A 
ATOM      7  N1  UNL     1     147.361 163.595 166.982  0.00  0.00    +0.000 N 
ATOM      8  C10 UNL     1     148.627 163.953 166.926  0.00  0.00    +0.000 A 
ATOM      9  N2  UNL     1     149.369 162.858 167.309  0.00  0.00    +0.000 NA
ATOM     10  C11 UNL     1     148.555 161.842 167.593  0.00  0.00    +0.000 A 
ATOM     11  C12 UNL     1     148.777 160.527 168.021  0.00  0.00    +0.000 A 
ATOM     12  N3  UNL     1     149.239 165.157 166.573  0.00  0.00    +0.000 N 
ATOM     13  H12 UNL     1     148.684 165.975 166.288  0.00  0.00    +0.000 HD
ENDROOT
BRANCH   7  14
ATOM     14  C5  UNL     1     146.173 164.293 166.707  0.00  0.00    +0.000 C 
ATOM     15  O1  UNL     1     146.405 165.691 166.919  0.00  0.00    +0.000 OA
ATOM     16  C6  UNL     1     145.267 166.332 166.514  0.00  0.00    +0.000 C 
ATOM     17  C8  UNL     1     144.470 165.398 165.661  0.00  0.00    +0.000 C 
ATOM     18  C9  UNL     1     145.568 164.314 165.376  0.00  0.00    +0.000 C 
BRANCH  18  19
ATOM     19  O3  UNL     1     144.789 163.206 165.037  0.00  0.00    +0.000 OA
ATOM     20  H9  UNL     1     145.251 162.791 164.248  0.00  0.00    +0.000 HD
ENDBRANCH  18  19
BRANCH  17  21
ATOM     21  O4  UNL     1     143.535 164.766 166.448  0.00  0.00    +0.000 OA
ATOM     22  H10 UNL     1     143.818 163.885 166.799  0.00  0.00    +0.000 HD
ENDBRANCH  17  21
BRANCH  16  23
ATOM     23  C7  UNL     1     145.558 167.576 165.682  0.00  0.00    +0.000 C 
BRANCH  23  24
ATOM     24  O2  UNL     1     144.783 168.647 166.068  0.00  0.00    +0.000 OA
ATOM     25  H6  UNL     1     143.826 168.513 165.872  0.00  0.00    +0.000 HD
ENDBRANCH  23  24
ENDBRANCH  16  23
ENDBRANCH   7  14
BRANCH  12  26
ATOM     26  C13 UNL     1     150.685 165.335 166.583  0.00  0.00    +0.000 C 
ATOM     27  C14 UNL     1     151.181 165.831 165.267  0.00  0.00    +0.000 C 
ATOM     28  C15 UNL     1     151.143 166.275 167.658  0.00  0.00    +0.000 C 
ENDBRANCH  12  26
TORSDOF 6
ENDMDL
MODEL 2
REMARK VINA RESULT:      -5.3      3.172      5.095
REMARK  Name = ./3D_structures\o43_MMV1593521_3D.pdb
REMARK  8 active torsions:
REMARK  status: ('A' for Active; 'I' for Inactive)
REMARK    1  A    between atoms: N1_7  and  C5_8
REMARK    2  A    between atoms: C6_10  and  C7_11
REMARK    3  A    between atoms: C7_11  and  O2_12
REMARK    4  A    between atoms: C8_13  and  O4_16
REMARK    5  A    between atoms: C9_14  and  O3_15
REMARK    6  A    between atoms: N3_21  and  C13_22
REMARK    7  A    between atoms: C13_22  and  C14_23
REMARK    8  A    between atoms: C13_22  and  C15_24
REMARK                            x       y       z     vdW  Elec       q    Type
REMARK                         _______ _______ _______ _____ _____    ______ ____
ROOT
ATOM      1 CL1  UNL     1     152.297 164.089 171.267  0.00  0.00    +0.000 Cl
ATOM      2  C1  UNL     1     150.886 163.793 170.240  0.00  0.00    +0.000 A 
ATOM      3  C2  UNL     1     150.144 164.865 169.796  0.00  0.00    +0.000 A 
ATOM      4 CL2  UNL     1     150.580 166.506 170.232  0.00  0.00    +0.000 Cl
ATOM      5  C3  UNL     1     149.030 164.625 168.984  0.00  0.00    +0.000 A 
ATOM      6  C4  UNL     1     148.658 163.357 168.622  0.00  0.00    +0.000 A 
ATOM      7  N1  UNL     1     147.628 162.860 167.851  0.00  0.00    +0.000 N 
ATOM      8  C10 UNL     1     147.721 161.548 167.817  0.00  0.00    +0.000 A 
ATOM      9  N2  UNL     1     148.821 161.205 168.572  0.00  0.00    +0.000 NA
ATOM     10  C11 UNL     1     149.389 162.306 169.062  0.00  0.00    +0.000 A 
ATOM     11  C12 UNL     1     150.509 162.528 169.874  0.00  0.00    +0.000 A 
ATOM     12  N3  UNL     1     146.942 160.575 167.187  0.00  0.00    +0.000 N 
ATOM     13  H12 UNL     1     146.121 160.832 166.622  0.00  0.00    +0.000 HD
ENDROOT
BRANCH   7  14
ATOM     14  C5  UNL     1     146.714 163.755 167.269  0.00  0.00    +0.000 C 
ATOM     15  O1  UNL     1     146.328 163.243 165.988  0.00  0.00    +0.000 OA
ATOM     16  C6  UNL     1     145.346 164.075 165.525  0.00  0.00    +0.000 C 
ATOM     17  C8  UNL     1     144.812 164.870 166.673  0.00  0.00    +0.000 C 
ATOM     18  C9  UNL     1     145.406 164.032 167.860  0.00  0.00    +0.000 C 
BRANCH  18  19
ATOM     19  O3  UNL     1     145.386 164.964 168.900  0.00  0.00    +0.000 OA
ATOM     20  H9  UNL     1     144.418 165.061 169.149  0.00  0.00    +0.000 HD
ENDBRANCH  18  19
BRANCH  17  21
ATOM     21  O4  UNL     1     145.469 166.078 166.720  0.00  0.00    +0.000 OA
ATOM     22  H10 UNL     1     146.456 166.011 166.752  0.00  0.00    +0.000 HD
ENDBRANCH  17  21
BRANCH  16  23
ATOM     23  C7  UNL     1     144.175 163.318 164.909  0.00  0.00    +0.000 C 
BRANCH  23  24
ATOM     24  O2  UNL     1     144.445 162.910 163.622  0.00  0.00    +0.000 OA
ATOM     25  H6  UNL     1     145.016 163.548 163.134  0.00  0.00    +0.000 HD
ENDBRANCH  23  24
ENDBRANCH  16  23
ENDBRANCH   7  14
BRANCH  12  26
ATOM     26  C13 UNL     1     147.233 159.152 167.285  0.00  0.00    +0.000 C 
ATOM     27  C14 UNL     1     146.475 158.516 168.401  0.00  0.00    +0.000 C 
ATOM     28  C15 UNL     1     146.934 158.413 166.014  0.00  0.00    +0.000 C 
ENDBRANCH  12  26
TORSDOF 6
ENDMDL
MODEL 3
REMARK VINA RESULT:      -5.3      4.440      6.266
REMARK  Name = ./3D_structures\o43_MMV1593521_3D.pdb
REMARK  8 active torsions:
REMARK  status: ('A' for Active; 'I' for Inactive)
REMARK    1  A    between atoms: N1_7  and  C5_8
REMARK    2  A    between atoms: C6_10  and  C7_11
REMARK    3  A    between atoms: C7_11  and  O2_12
REMARK    4  A    between atoms: C8_13  and  O4_16
REMARK    5  A    between atoms: C9_14  and  O3_15
REMARK    6  A    between atoms: N3_21  and  C13_22
REMARK    7  A    between atoms: C13_22  and  C14_23
REMARK    8  A    between atoms: C13_22  and  C15_24
REMARK                            x       y       z     vdW  Elec       q    Type
REMARK                         _______ _______ _______ _____ _____    ______ ____
ROOT
ATOM      1 CL1  UNL     1     152.482 167.866 172.759  0.00  0.00    +0.000 Cl
ATOM      2  C1  UNL     1     151.453 166.743 171.858  0.00  0.00    +0.000 A 
ATOM      3  C2  UNL     1     150.221 167.170 171.418  0.00  0.00    +0.000 A 
ATOM      4 CL2  UNL     1     149.665 168.802 171.736  0.00  0.00    +0.000 Cl
ATOM      5  C3  UNL     1     149.411 166.279 170.706  0.00  0.00    +0.000 A 
ATOM      6  C4  UNL     1     149.811 164.995 170.437  0.00  0.00    +0.000 A 
ATOM      7  N1  UNL     1     149.218 163.943 169.773  0.00  0.00    +0.000 N 
ATOM      8  C10 UNL     1     150.037 162.912 169.798  0.00  0.00    +0.000 A 
ATOM      9  N2  UNL     1     151.161 163.312 170.484  0.00  0.00    +0.000 NA
ATOM     10  C11 UNL     1     151.023 164.579 170.873  0.00  0.00    +0.000 A 
ATOM     11  C12 UNL     1     151.847 165.459 171.587  0.00  0.00    +0.000 A 
ATOM     12  N3  UNL     1     149.924 161.621 169.279  0.00  0.00    +0.000 N 
ATOM     13  H12 UNL     1     149.083 161.323 168.765  0.00  0.00    +0.000 HD
ENDROOT
BRANCH   7  14
ATOM     14  C5  UNL     1     147.939 164.116 169.217  0.00  0.00    +0.000 C 
ATOM     15  O1  UNL     1     147.834 163.292 168.049  0.00  0.00    +0.000 OA
ATOM     16  C6  UNL     1     146.538 163.394 167.625  0.00  0.00    +0.000 C 
ATOM     17  C8  UNL     1     145.711 163.945 168.743  0.00  0.00    +0.000 C 
ATOM     18  C9  UNL     1     146.718 163.740 169.929  0.00  0.00    +0.000 C 
BRANCH  18  19
ATOM     19  O3  UNL     1     146.244 164.662 170.864  0.00  0.00    +0.000 OA
ATOM     20  H9  UNL     1     145.695 165.315 170.335  0.00  0.00    +0.000 HD
ENDBRANCH  18  19
BRANCH  17  21
ATOM     21  O4  UNL     1     145.608 165.308 168.589  0.00  0.00    +0.000 OA
ATOM     22  H10 UNL     1     145.267 165.789 169.384  0.00  0.00    +0.000 HD
ENDBRANCH  17  21
BRANCH  16  23
ATOM     23  C7  UNL     1     145.939 162.048 167.234  0.00  0.00    +0.000 C 
BRANCH  23  24
ATOM     24  O2  UNL     1     146.910 161.105 166.985  0.00  0.00    +0.000 OA
ATOM     25  H6  UNL     1     147.818 161.433 167.187  0.00  0.00    +0.000 HD
ENDBRANCH  23  24
ENDBRANCH  16  23
ENDBRANCH   7  14
BRANCH  12  26
ATOM     26  C13 UNL     1     150.973 160.621 169.426  0.00  0.00    +0.000 C 
ATOM     27  C14 UNL     1     150.403 159.266 169.673  0.00  0.00    +0.000 C 
ATOM     28  C15 UNL     1     151.878 160.555 168.232  0.00  0.00    +0.000 C 
ENDBRANCH  12  26
TORSDOF 6
ENDMDL
MODEL 4
REMARK VINA RESULT:      -5.2      4.036      5.945
REMARK  Name = ./3D_structures\o43_MMV1593521_3D.pdb
REMARK  8 active torsions:
REMARK  status: ('A' for Active; 'I' for Inactive)
REMARK    1  A    between atoms: N1_7  and  C5_8
REMARK    2  A    between atoms: C6_10  and  C7_11
REMARK    3  A    between atoms: C7_11  and  O2_12
REMARK    4  A    between atoms: C8_13  and  O4_16
REMARK    5  A    between atoms: C9_14  and  O3_15
REMARK    6  A    between atoms: N3_21  and  C13_22
REMARK    7  A    between atoms: C13_22  and  C14_23
REMARK    8  A    between atoms: C13_22  and  C15_24
REMARK                            x       y       z     vdW  Elec       q    Type
REMARK                         _______ _______ _______ _____ _____    ______ ____
ROOT
ATOM      1 CL1  UNL     1     154.953 165.180 163.665  0.00  0.00    +0.000 Cl
ATOM      2  C1  UNL     1     153.607 165.355 164.801  0.00  0.00    +0.000 A 
ATOM      3  C2  UNL     1     152.549 164.478 164.725  0.00  0.00    +0.000 A 
ATOM      4 CL2  UNL     1     152.521 163.199 163.526  0.00  0.00    +0.000 Cl
ATOM      5  C3  UNL     1     151.488 164.620 165.625  0.00  0.00    +0.000 A 
ATOM      6  C4  UNL     1     151.473 165.606 166.576  0.00  0.00    +0.000 A 
ATOM      7  N1  UNL     1     150.571 165.956 167.559  0.00  0.00    +0.000 N 
ATOM      8  C10 UNL     1     151.041 166.997 168.213  0.00  0.00    +0.000 A 
ATOM      9  N2  UNL     1     152.253 167.313 167.642  0.00  0.00    +0.000 NA
ATOM     10  C11 UNL     1     152.515 166.468 166.647  0.00  0.00    +0.000 A 
ATOM     11  C12 UNL     1     153.586 166.339 165.754  0.00  0.00    +0.000 A 
ATOM     12  N3  UNL     1     150.528 167.733 169.283  0.00  0.00    +0.000 N 
ATOM     13  H12 UNL     1     149.622 167.495 169.710  0.00  0.00    +0.000 HD
ENDROOT
BRANCH   7  14
ATOM     14  C5  UNL     1     149.388 165.210 167.700  0.00  0.00    +0.000 C 
ATOM     15  O1  UNL     1     149.084 165.098 169.096  0.00  0.00    +0.000 OA
ATOM     16  C6  UNL     1     147.864 164.483 169.172  0.00  0.00    +0.000 C 
ATOM     17  C8  UNL     1     147.199 164.574 167.836  0.00  0.00    +0.000 C 
ATOM     18  C9  UNL     1     148.104 165.673 167.175  0.00  0.00    +0.000 C 
BRANCH  18  19
ATOM     19  O3  UNL     1     147.877 165.444 165.816  0.00  0.00    +0.000 OA
ATOM     20  H9  UNL     1     147.786 166.357 165.407  0.00  0.00    +0.000 HD
ENDBRANCH  18  19
BRANCH  17  21
ATOM     21  O4  UNL     1     147.458 163.421 167.132  0.00  0.00    +0.000 OA
ATOM     22  H10 UNL     1     148.103 163.527 166.390  0.00  0.00    +0.000 HD
ENDBRANCH  17  21
BRANCH  16  23
ATOM     23  C7  UNL     1     146.938 165.139 170.190  0.00  0.00    +0.000 C 
BRANCH  23  24
ATOM     24  O2  UNL     1     145.639 165.204 169.738  0.00  0.00    +0.000 OA
ATOM     25  H6  UNL     1     145.096 164.437 170.034  0.00  0.00    +0.000 HD
ENDBRANCH  23  24
ENDBRANCH  16  23
ENDBRANCH   7  14
BRANCH  12  26
ATOM     26  C13 UNL     1     151.231 168.870 169.862  0.00  0.00    +0.000 C 
ATOM     27  C14 UNL     1     150.724 170.160 169.312  0.00  0.00    +0.000 C 
ATOM     28  C15 UNL     1     151.131 168.909 171.358  0.00  0.00    +0.000 C 
ENDBRANCH  12  26
TORSDOF 6
ENDMDL
MODEL 5
REMARK VINA RESULT:      -5.0      3.891      6.519
REMARK  Name = ./3D_structures\o43_MMV1593521_3D.pdb
REMARK  8 active torsions:
REMARK  status: ('A' for Active; 'I' for Inactive)
REMARK    1  A    between atoms: N1_7  and  C5_8
REMARK    2  A    between atoms: C6_10  and  C7_11
REMARK    3  A    between atoms: C7_11  and  O2_12
REMARK    4  A    between atoms: C8_13  and  O4_16
REMARK    5  A    between atoms: C9_14  and  O3_15
REMARK    6  A    between atoms: N3_21  and  C13_22
REMARK    7  A    between atoms: C13_22  and  C14_23
REMARK    8  A    between atoms: C13_22  and  C15_24
REMARK                            x       y       z     vdW  Elec       q    Type
REMARK                         _______ _______ _______ _____ _____    ______ ____
ROOT
ATOM      1 CL1  UNL     1     142.962 165.673 164.987  0.00  0.00    +0.000 Cl
ATOM      2  C1  UNL     1     144.315 164.832 165.758  0.00  0.00    +0.000 A 
ATOM      3  C2  UNL     1     145.379 165.568 166.230  0.00  0.00    +0.000 A 
ATOM      4 CL2  UNL     1     145.407 167.315 166.078  0.00  0.00    +0.000 Cl
ATOM      5  C3  UNL     1     146.446 164.899 166.838  0.00  0.00    +0.000 A 
ATOM      6  C4  UNL     1     146.461 163.536 166.976  0.00  0.00    +0.000 A 
ATOM      7  N1  UNL     1     147.368 162.653 167.522  0.00  0.00    +0.000 N 
ATOM      8  C10 UNL     1     146.896 161.430 167.398  0.00  0.00    +0.000 A 
ATOM      9  N2  UNL     1     145.677 161.536 166.767  0.00  0.00    +0.000 NA
ATOM     10  C11 UNL     1     145.414 162.816 166.510  0.00  0.00    +0.000 A 
ATOM     11  C12 UNL     1     144.336 163.470 165.898  0.00  0.00    +0.000 A 
ATOM     12  N3  UNL     1     147.412 160.190 167.779  0.00  0.00    +0.000 N 
ATOM     13  H12 UNL     1     148.323 160.113 168.252  0.00  0.00    +0.000 HD
ENDROOT
BRANCH   7  14
ATOM     14  C5  UNL     1     148.558 163.151 168.082  0.00  0.00    +0.000 C 
ATOM     15  O1  UNL     1     148.841 162.416 169.279  0.00  0.00    +0.000 OA
ATOM     16  C6  UNL     1     150.066 162.845 169.710  0.00  0.00    +0.000 C 
ATOM     17  C8  UNL     1     150.752 163.544 168.580  0.00  0.00    +0.000 C 
ATOM     18  C9  UNL     1     149.844 163.061 167.394  0.00  0.00    +0.000 C 
BRANCH  18  19
ATOM     19  O3  UNL     1     150.095 164.040 166.430  0.00  0.00    +0.000 OA
ATOM     20  H9  UNL     1     150.848 163.676 165.875  0.00  0.00    +0.000 HD
ENDBRANCH  18  19
BRANCH  17  21
ATOM     21  O4  UNL     1     150.517 164.895 168.686  0.00  0.00    +0.000 OA
ATOM     22  H10 UNL     1     150.505 165.241 169.614  0.00  0.00    +0.000 HD
ENDBRANCH  17  21
BRANCH  16  23
ATOM     23  C7  UNL     1     150.968 161.699 170.154  0.00  0.00    +0.000 C 
BRANCH  23  24
ATOM     24  O2  UNL     1     150.330 160.481 170.075  0.00  0.00    +0.000 OA
ATOM     25  H6  UNL     1     149.891 160.338 169.205  0.00  0.00    +0.000 HD
ENDBRANCH  23  24
ENDBRANCH  16  23
ENDBRANCH   7  14
BRANCH  12  26
ATOM     26  C13 UNL     1     146.706 158.939 167.539  0.00  0.00    +0.000 C 
ATOM     27  C14 UNL     1     146.982 158.413 166.171  0.00  0.00    +0.000 C 
ATOM     28  C15 UNL     1     147.050 157.880 168.543  0.00  0.00    +0.000 C 
ENDBRANCH  12  26
TORSDOF 6
ENDMDL
MODEL 6
REMARK VINA RESULT:      -5.0     11.149     13.408
REMARK  Name = ./3D_structures\o43_MMV1593521_3D.pdb
REMARK  8 active torsions:
REMARK  status: ('A' for Active; 'I' for Inactive)
REMARK    1  A    between atoms: N1_7  and  C5_8
REMARK    2  A    between atoms: C6_10  and  C7_11
REMARK    3  A    between atoms: C7_11  and  O2_12
REMARK    4  A    between atoms: C8_13  and  O4_16
REMARK    5  A    between atoms: C9_14  and  O3_15
REMARK    6  A    between atoms: N3_21  and  C13_22
REMARK    7  A    between atoms: C13_22  and  C14_23
REMARK    8  A    between atoms: C13_22  and  C15_24
REMARK                            x       y       z     vdW  Elec       q    Type
REMARK                         _______ _______ _______ _____ _____    ______ ____
ROOT
ATOM      1 CL1  UNL     1     163.134 162.937 168.165  0.00  0.00    +0.000 Cl
ATOM      2  C1  UNL     1     161.733 161.857 168.219  0.00  0.00    +0.000 A 
ATOM      3  C2  UNL     1     160.818 161.998 169.239  0.00  0.00    +0.000 A 
ATOM      4 CL2  UNL     1     161.024 163.225 170.473  0.00  0.00    +0.000 Cl
ATOM      5  C3  UNL     1     159.712 161.142 169.277  0.00  0.00    +0.000 A 
ATOM      6  C4  UNL     1     159.516 160.170 168.330  0.00  0.00    +0.000 A 
ATOM      7  N1  UNL     1     158.535 159.220 168.143  0.00  0.00    +0.000 N 
ATOM      8  C10 UNL     1     158.822 158.523 167.064  0.00  0.00    +0.000 A 
ATOM      9  N2  UNL     1     159.997 159.034 166.559  0.00  0.00    +0.000 NA
ATOM     10  C11 UNL     1     160.419 160.035 167.330  0.00  0.00    +0.000 A 
ATOM     11  C12 UNL     1     161.531 160.884 167.276  0.00  0.00    +0.000 A 
ATOM     12  N3  UNL     1     158.166 157.459 166.441  0.00  0.00    +0.000 N 
ATOM     13  H12 UNL     1     157.287 157.079 166.819  0.00  0.00    +0.000 HD
ENDROOT
BRANCH   7  14
ATOM     14  C5  UNL     1     157.468 159.147 169.055  0.00  0.00    +0.000 C 
ATOM     15  O1  UNL     1     156.255 158.941 168.322  0.00  0.00    +0.000 OA
ATOM     16  C6  UNL     1     155.273 158.747 169.254  0.00  0.00    +0.000 C 
ATOM     17  C8  UNL     1     155.916 158.416 170.563  0.00  0.00    +0.000 C 
ATOM     18  C9  UNL     1     157.366 158.088 170.058  0.00  0.00    +0.000 C 
BRANCH  18  19
ATOM     19  O3  UNL     1     158.117 158.270 171.221  0.00  0.00    +0.000 OA
ATOM     20  H9  UNL     1     158.847 157.582 171.173  0.00  0.00    +0.000 HD
ENDBRANCH  18  19
BRANCH  17  21
ATOM     21  O4  UNL     1     156.043 159.570 171.300  0.00  0.00    +0.000 OA
ATOM     22  H10 UNL     1     156.924 159.688 171.735  0.00  0.00    +0.000 HD
ENDBRANCH  17  21
BRANCH  16  23
ATOM     23  C7  UNL     1     154.343 157.593 168.897  0.00  0.00    +0.000 C 
BRANCH  23  24
ATOM     24  O2  UNL     1     154.599 157.095 167.639  0.00  0.00    +0.000 OA
ATOM     25  H6  UNL     1     154.903 157.791 167.011  0.00  0.00    +0.000 HD
ENDBRANCH  23  24
ENDBRANCH  16  23
ENDBRANCH   7  14
BRANCH  12  26
ATOM     26  C13 UNL     1     158.671 156.826 165.231  0.00  0.00    +0.000 C 
ATOM     27  C14 UNL     1     158.413 155.357 165.238  0.00  0.00    +0.000 C 
ATOM     28  C15 UNL     1     158.085 157.415 163.983  0.00  0.00    +0.000 C 
ENDBRANCH  12  26
TORSDOF 6
ENDMDL
MODEL 7
REMARK VINA RESULT:      -5.0      8.364     10.619
REMARK  Name = ./3D_structures\o43_MMV1593521_3D.pdb
REMARK  8 active torsions:
REMARK  status: ('A' for Active; 'I' for Inactive)
REMARK    1  A    between atoms: N1_7  and  C5_8
REMARK    2  A    between atoms: C6_10  and  C7_11
REMARK    3  A    between atoms: C7_11  and  O2_12
REMARK    4  A    between atoms: C8_13  and  O4_16
REMARK    5  A    between atoms: C9_14  and  O3_15
REMARK    6  A    between atoms: N3_21  and  C13_22
REMARK    7  A    between atoms: C13_22  and  C14_23
REMARK    8  A    between atoms: C13_22  and  C15_24
REMARK                            x       y       z     vdW  Elec       q    Type
REMARK                         _______ _______ _______ _____ _____    ______ ____
ROOT
ATOM      1 CL1  UNL     1     149.923 162.379 167.089  0.00  0.00    +0.000 Cl
ATOM      2  C1  UNL     1     151.460 161.650 167.578  0.00  0.00    +0.000 A 
ATOM      3  C2  UNL     1     152.200 160.958 166.644  0.00  0.00    +0.000 A 
ATOM      4 CL2  UNL     1     151.640 160.793 164.991  0.00  0.00    +0.000 Cl
ATOM      5  C3  UNL     1     153.414 160.384 167.036  0.00  0.00    +0.000 A 
ATOM      6  C4  UNL     1     153.885 160.491 168.318  0.00  0.00    +0.000 A 
ATOM      7  N1  UNL     1     155.022 160.029 168.947  0.00  0.00    +0.000 N 
ATOM      8  C10 UNL     1     154.994 160.413 170.206  0.00  0.00    +0.000 A 
ATOM      9  N2  UNL     1     153.828 161.125 170.381  0.00  0.00    +0.000 NA
ATOM     10  C11 UNL     1     153.155 161.171 169.233  0.00  0.00    +0.000 A 
ATOM     11  C12 UNL     1     151.937 161.753 168.858  0.00  0.00    +0.000 A 
ATOM     12  N3  UNL     1     155.887 160.213 171.260  0.00  0.00    +0.000 N 
ATOM     13  H12 UNL     1     156.759 159.682 171.129  0.00  0.00    +0.000 HD
ENDROOT
BRANCH   7  14
ATOM     14  C5  UNL     1     155.959 159.284 168.210  0.00  0.00    +0.000 C 
ATOM     15  O1  UNL     1     157.274 159.639 168.654  0.00  0.00    +0.000 OA
ATOM     16  C6  UNL     1     158.135 158.798 168.005  0.00  0.00    +0.000 C 
ATOM     17  C8  UNL     1     157.358 157.639 167.468  0.00  0.00    +0.000 C 
ATOM     18  C9  UNL     1     156.029 157.826 168.282  0.00  0.00    +0.000 C 
BRANCH  18  19
ATOM     19  O3  UNL     1     155.114 157.127 167.491  0.00  0.00    +0.000 OA
ATOM     20  H9  UNL     1     155.249 157.477 166.560  0.00  0.00    +0.000 HD
ENDBRANCH  18  19
BRANCH  17  21
ATOM     21  O4  UNL     1     157.020 157.899 166.160  0.00  0.00    +0.000 OA
ATOM     22  H10 UNL     1     156.968 157.098 165.581  0.00  0.00    +0.000 HD
ENDBRANCH  17  21
BRANCH  16  23
ATOM     23  C7  UNL     1     159.215 158.237 168.925  0.00  0.00    +0.000 C 
BRANCH  23  24
ATOM     24  O2  UNL     1     158.825 158.252 170.245  0.00  0.00    +0.000 OA
ATOM     25  H6  UNL     1     158.596 157.355 170.583  0.00  0.00    +0.000 HD
ENDBRANCH  23  24
ENDBRANCH  16  23
ENDBRANCH   7  14
BRANCH  12  26
ATOM     26  C13 UNL     1     155.652 160.738 172.599  0.00  0.00    +0.000 C 
ATOM     27  C14 UNL     1     155.524 159.638 173.599  0.00  0.00    +0.000 C 
ATOM     28  C15 UNL     1     156.731 161.677 173.048  0.00  0.00    +0.000 C 
ENDBRANCH  12  26
TORSDOF 6
ENDMDL
MODEL 8
REMARK VINA RESULT:      -5.0     21.710     23.408
REMARK  Name = ./3D_structures\o43_MMV1593521_3D.pdb
REMARK  8 active torsions:
REMARK  status: ('A' for Active; 'I' for Inactive)
REMARK    1  A    between atoms: N1_7  and  C5_8
REMARK    2  A    between atoms: C6_10  and  C7_11
REMARK    3  A    between atoms: C7_11  and  O2_12
REMARK    4  A    between atoms: C8_13  and  O4_16
REMARK    5  A    between atoms: C9_14  and  O3_15
REMARK    6  A    between atoms: N3_21  and  C13_22
REMARK    7  A    between atoms: C13_22  and  C14_23
REMARK    8  A    between atoms: C13_22  and  C15_24
REMARK                            x       y       z     vdW  Elec       q    Type
REMARK                         _______ _______ _______ _____ _____    ______ ____
ROOT
ATOM      1 CL1  UNL     1     159.268 144.891 163.241  0.00  0.00    +0.000 Cl
ATOM      2  C1  UNL     1     159.974 145.150 164.844  0.00  0.00    +0.000 A 
ATOM      3  C2  UNL     1     159.900 144.142 165.779  0.00  0.00    +0.000 A 
ATOM      4 CL2  UNL     1     159.122 142.617 165.402  0.00  0.00    +0.000 Cl
ATOM      5  C3  UNL     1     160.460 144.352 167.044  0.00  0.00    +0.000 A 
ATOM      6  C4  UNL     1     161.076 145.530 167.376  0.00  0.00    +0.000 A 
ATOM      7  N1  UNL     1     161.692 145.981 168.524  0.00  0.00    +0.000 N 
ATOM      8  C10 UNL     1     162.127 147.206 168.317  0.00  0.00    +0.000 A 
ATOM      9  N2  UNL     1     161.785 147.538 167.025  0.00  0.00    +0.000 NA
ATOM     10  C11 UNL     1     161.145 146.519 166.454  0.00  0.00    +0.000 A 
ATOM     11  C12 UNL     1     160.591 146.325 165.182  0.00  0.00    +0.000 A 
ATOM     12  N3  UNL     1     162.810 148.104 169.140  0.00  0.00    +0.000 N 
ATOM     13  H12 UNL     1     163.066 147.854 170.105  0.00  0.00    +0.000 HD
ENDROOT
BRANCH   7  14
ATOM     14  C5  UNL     1     161.758 145.136 169.645  0.00  0.00    +0.000 C 
ATOM     15  O1  UNL     1     163.066 145.240 170.219  0.00  0.00    +0.000 OA
ATOM     16  C6  UNL     1     163.036 144.507 171.373  0.00  0.00    +0.000 C 
ATOM     17  C8  UNL     1     161.608 144.274 171.755  0.00  0.00    +0.000 C 
ATOM     18  C9  UNL     1     160.921 145.338 170.827  0.00  0.00    +0.000 C 
BRANCH  18  19
ATOM     19  O3  UNL     1     159.617 144.843 170.749  0.00  0.00    +0.000 OA
ATOM     20  H9  UNL     1     159.709 143.920 170.364  0.00  0.00    +0.000 HD
ENDBRANCH  18  19
BRANCH  17  21
ATOM     21  O4  UNL     1     161.210 143.054 171.261  0.00  0.00    +0.000 OA
ATOM     22  H10 UNL     1     161.872 142.327 171.374  0.00  0.00    +0.000 HD
ENDBRANCH  17  21
BRANCH  16  23
ATOM     23  C7  UNL     1     163.711 145.218 172.540  0.00  0.00    +0.000 C 
BRANCH  23  24
ATOM     24  O2  UNL     1     163.024 146.349 172.921  0.00  0.00    +0.000 OA
ATOM     25  H6  UNL     1     162.618 146.264 173.815  0.00  0.00    +0.000 HD
ENDBRANCH  23  24
ENDBRANCH  16  23
ENDBRANCH   7  14
BRANCH  12  26
ATOM     26  C13 UNL     1     163.201 149.434 168.697  0.00  0.00    +0.000 C 
ATOM     27  C14 UNL     1     163.085 150.432 169.800  0.00  0.00    +0.000 C 
ATOM     28  C15 UNL     1     164.599 149.474 168.154  0.00  0.00    +0.000 C 
ENDBRANCH  12  26
TORSDOF 6
ENDMDL
MODEL 9
REMARK VINA RESULT:      -4.8     23.771     26.434
REMARK  Name = ./3D_structures\o43_MMV1593521_3D.pdb
REMARK  8 active torsions:
REMARK  status: ('A' for Active; 'I' for Inactive)
REMARK    1  A    between atoms: N1_7  and  C5_8
REMARK    2  A    between atoms: C6_10  and  C7_11
REMARK    3  A    between atoms: C7_11  and  O2_12
REMARK    4  A    between atoms: C8_13  and  O4_16
REMARK    5  A    between atoms: C9_14  and  O3_15
REMARK    6  A    between atoms: N3_21  and  C13_22
REMARK    7  A    between atoms: C13_22  and  C14_23
REMARK    8  A    between atoms: C13_22  and  C15_24
REMARK                            x       y       z     vdW  Elec       q    Type
REMARK                         _______ _______ _______ _____ _____    ______ ____
ROOT
ATOM      1 CL1  UNL     1     167.663 140.712 164.960  0.00  0.00    +0.000 Cl
ATOM      2  C1  UNL     1     166.329 141.441 165.866  0.00  0.00    +0.000 A 
ATOM      3  C2  UNL     1     166.473 141.649 167.219  0.00  0.00    +0.000 A 
ATOM      4 CL2  UNL     1     167.952 141.204 168.048  0.00  0.00    +0.000 Cl
ATOM      5  C3  UNL     1     165.416 142.227 167.930  0.00  0.00    +0.000 A 
ATOM      6  C4  UNL     1     164.244 142.589 167.318  0.00  0.00    +0.000 A 
ATOM      7  N1  UNL     1     163.077 143.161 167.778  0.00  0.00    +0.000 N 
ATOM      8  C10 UNL     1     162.248 143.302 166.766  0.00  0.00    +0.000 A 
ATOM      9  N2  UNL     1     162.893 142.816 165.650  0.00  0.00    +0.000 NA
ATOM     10  C11 UNL     1     164.106 142.382 165.987  0.00  0.00    +0.000 A 
ATOM     11  C12 UNL     1     165.155 141.805 165.260  0.00  0.00    +0.000 A 
ATOM     12  N3  UNL     1     160.954 143.821 166.688  0.00  0.00    +0.000 N 
ATOM     13  H12 UNL     1     160.473 144.185 167.521  0.00  0.00    +0.000 HD
ENDROOT
BRANCH   7  14
ATOM     14  C5  UNL     1     162.961 143.480 169.142  0.00  0.00    +0.000 C 
ATOM     15  O1  UNL     1     162.150 144.654 169.268  0.00  0.00    +0.000 OA
ATOM     16  C6  UNL     1     161.960 144.844 170.609  0.00  0.00    +0.000 C 
ATOM     17  C8  UNL     1     162.293 143.574 171.324  0.00  0.00    +0.000 C 
ATOM     18  C9  UNL     1     162.307 142.590 170.101  0.00  0.00    +0.000 C 
BRANCH  18  19
ATOM     19  O3  UNL     1     163.084 141.540 170.593  0.00  0.00    +0.000 OA
ATOM     20  H9  UNL     1     163.996 141.679 170.198  0.00  0.00    +0.000 HD
ENDBRANCH  18  19
BRANCH  17  21
ATOM     21  O4  UNL     1     163.598 143.635 171.753  0.00  0.00    +0.000 OA
ATOM     22  H10 UNL     1     164.270 143.398 171.066  0.00  0.00    +0.000 HD
ENDBRANCH  17  21
BRANCH  16  23
ATOM     23  C7  UNL     1     160.518 145.199 170.954  0.00  0.00    +0.000 C 
BRANCH  23  24
ATOM     24  O2  UNL     1     159.711 145.216 169.839  0.00  0.00    +0.000 OA
ATOM     25  H6  UNL     1     159.246 144.359 169.693  0.00  0.00    +0.000 HD
ENDBRANCH  23  24
ENDBRANCH  16  23
ENDBRANCH   7  14
BRANCH  12  26
ATOM     26  C13 UNL     1     160.207 143.882 165.439  0.00  0.00    +0.000 C 
ATOM     27  C14 UNL     1     159.045 142.946 165.453  0.00  0.00    +0.000 C 
ATOM     28  C15 UNL     1     159.711 145.263 165.130  0.00  0.00    +0.000 C 
ENDBRANCH  12  26
TORSDOF 6
ENDMDL
