MODEL 1
REMARK VINA RESULT:      -6.8      0.000      0.000
REMARK  Name = ./3D_structures\o44_MMV1593514_3D.pdb
REMARK  7 active torsions:
REMARK  status: ('A' for Active; 'I' for Inactive)
REMARK    1  A    between atoms: C3_4  and  C7_8
REMARK    2  A    between atoms: C7_8  and  N1_9
REMARK    3  A    between atoms: N5_18  and  C13_19
REMARK    4  A    between atoms: C14_21  and  C15_22
REMARK    5  A    between atoms: N6_24  and  C16_25
REMARK    6  A    between atoms: C17_26  and  O4_29
REMARK    7  A    between atoms: C18_27  and  O3_28
REMARK                            x       y       z     vdW  Elec       q    Type
REMARK                         _______ _______ _______ _____ _____    ______ ____
ROOT
ATOM      1  N1  UNL     1     153.617 159.488 169.213  0.00  0.00    +0.000 N 
ATOM      2  C8  UNL     1     152.223 159.719 169.169  0.00  0.00    +0.000 C 
ATOM      3  N2  UNL     1     151.279 158.850 169.495  0.00  0.00    +0.000 NA
ATOM      4  C9  UNL     1     149.974 159.156 169.422  0.00  0.00    +0.000 C 
ATOM      5  N3  UNL     1     149.567 160.390 169.005  0.00  0.00    +0.000 NA
ATOM      6  C10 UNL     1     150.478 161.317 168.660  0.00  0.00    +0.000 A 
ATOM      7  C11 UNL     1     151.809 160.982 168.741  0.00  0.00    +0.000 A 
ATOM      8  N4  UNL     1     152.505 162.064 168.347  0.00  0.00    +0.000 NA
ATOM      9  C12 UNL     1     151.671 163.066 168.021  0.00  0.00    +0.000 A 
ATOM     10  N5  UNL     1     150.430 162.587 168.220  0.00  0.00    +0.000 N 
ATOM     11 CL1  UNL     1     148.816 157.927 169.879  0.00  0.00    +0.000 Cl
ATOM     12  H7  UNL     1     154.300 160.215 168.943  0.00  0.00    +0.000 HD
ENDROOT
BRANCH  10  13
ATOM     13  C13 UNL     1     149.191 163.296 168.006  0.00  0.00    +0.000 C 
ATOM     14  O1  UNL     1     149.438 164.415 167.255  0.00  0.00    +0.000 OA
ATOM     15  C14 UNL     1     148.602 165.429 167.644  0.00  0.00    +0.000 C 
ATOM     16  C17 UNL     1     148.027 165.112 168.987  0.00  0.00    +0.000 C 
ATOM     17  C18 UNL     1     148.531 163.738 169.286  0.00  0.00    +0.000 C 
BRANCH  15  18
ATOM     18  C15 UNL     1     147.471 165.499 166.673  0.00  0.00    +0.000 C 
ATOM     19  O2  UNL     1     147.158 166.621 166.220  0.00  0.00    +0.000 OA
ATOM     20  N6  UNL     1     146.768 164.329 166.272  0.00  0.00    +0.000 N 
ATOM     21  C16 UNL     1     145.659 164.403 165.319  0.00  0.00    +0.000 C 
ATOM     22  H11 UNL     1     147.063 163.415 166.675  0.00  0.00    +0.000 HD
ENDBRANCH  15  18
BRANCH  17  23
ATOM     23  O3  UNL     1     147.529 162.860 169.696  0.00  0.00    +0.000 OA
ATOM     24  H17 UNL     1     147.312 162.216 168.957  0.00  0.00    +0.000 HD
ENDBRANCH  17  23
BRANCH  16  25
ATOM     25  O4  UNL     1     146.629 165.162 168.984  0.00  0.00    +0.000 OA
ATOM     26  H18 UNL     1     146.300 165.360 169.898  0.00  0.00    +0.000 HD
ENDBRANCH  16  25
ENDBRANCH  10  13
BRANCH   1  27
ATOM     27  C7  UNL     1     154.091 158.192 169.650  0.00  0.00    +0.000 C 
BRANCH  27  31
ATOM     28  I1  UNL     1     158.923 158.235 167.108  0.00  0.00    +0.000 I 
ATOM     29  C1  UNL     1     157.742 158.316 168.823  0.00  0.00    +0.000 A 
ATOM     30  C2  UNL     1     156.359 158.231 168.718  0.00  0.00    +0.000 A 
ATOM     31  C3  UNL     1     155.553 158.281 169.825  0.00  0.00    +0.000 A 
ATOM     32  C4  UNL     1     156.074 158.416 171.082  0.00  0.00    +0.000 A 
ATOM     33  C5  UNL     1     157.449 158.503 171.214  0.00  0.00    +0.000 A 
ATOM     34  C6  UNL     1     158.265 158.453 170.101  0.00  0.00    +0.000 A 
ENDBRANCH  27  31
ENDBRANCH   1  27
TORSDOF 6
ENDMDL
MODEL 2
REMARK VINA RESULT:      -6.7      1.584      1.826
REMARK  Name = ./3D_structures\o44_MMV1593514_3D.pdb
REMARK  7 active torsions:
REMARK  status: ('A' for Active; 'I' for Inactive)
REMARK    1  A    between atoms: C3_4  and  C7_8
REMARK    2  A    between atoms: C7_8  and  N1_9
REMARK    3  A    between atoms: N5_18  and  C13_19
REMARK    4  A    between atoms: C14_21  and  C15_22
REMARK    5  A    between atoms: N6_24  and  C16_25
REMARK    6  A    between atoms: C17_26  and  O4_29
REMARK    7  A    between atoms: C18_27  and  O3_28
REMARK                            x       y       z     vdW  Elec       q    Type
REMARK                         _______ _______ _______ _____ _____    ______ ____
ROOT
ATOM      1  N1  UNL     1     153.842 159.486 168.445  0.00  0.00    +0.000 N 
ATOM      2  C8  UNL     1     152.469 159.764 168.642  0.00  0.00    +0.000 C 
ATOM      3  N2  UNL     1     151.594 158.973 169.242  0.00  0.00    +0.000 NA
ATOM      4  C9  UNL     1     150.304 159.319 169.384  0.00  0.00    +0.000 C 
ATOM      5  N3  UNL     1     149.843 160.513 168.910  0.00  0.00    +0.000 NA
ATOM      6  C10 UNL     1     150.684 161.359 168.291  0.00  0.00    +0.000 A 
ATOM      7  C11 UNL     1     152.001 160.985 168.155  0.00  0.00    +0.000 A 
ATOM      8  N4  UNL     1     152.624 161.990 167.511  0.00  0.00    +0.000 NA
ATOM      9  C12 UNL     1     151.757 162.979 167.235  0.00  0.00    +0.000 A 
ATOM     10  N5  UNL     1     150.572 162.573 167.722  0.00  0.00    +0.000 N 
ATOM     11 CL1  UNL     1     149.238 158.194 170.195  0.00  0.00    +0.000 Cl
ATOM     12  H7  UNL     1     154.471 160.152 167.967  0.00  0.00    +0.000 HD
ENDROOT
BRANCH  10  13
ATOM     13  C13 UNL     1     149.326 163.300 167.667  0.00  0.00    +0.000 C 
ATOM     14  O1  UNL     1     149.486 164.405 166.872  0.00  0.00    +0.000 OA
ATOM     15  C14 UNL     1     148.725 165.438 167.356  0.00  0.00    +0.000 C 
ATOM     16  C17 UNL     1     148.332 165.148 168.769  0.00  0.00    +0.000 C 
ATOM     17  C18 UNL     1     148.851 163.768 169.017  0.00  0.00    +0.000 C 
BRANCH  15  18
ATOM     18  C15 UNL     1     147.475 165.515 166.546  0.00  0.00    +0.000 C 
ATOM     19  O2  UNL     1     147.092 166.642 166.166  0.00  0.00    +0.000 OA
ATOM     20  N6  UNL     1     146.736 164.345 166.213  0.00  0.00    +0.000 N 
ATOM     21  C16 UNL     1     145.510 164.425 165.416  0.00  0.00    +0.000 C 
ATOM     22  H11 UNL     1     147.093 163.425 166.550  0.00  0.00    +0.000 HD
ENDBRANCH  15  18
BRANCH  17  23
ATOM     23  O3  UNL     1     147.901 162.913 169.571  0.00  0.00    +0.000 OA
ATOM     24  H17 UNL     1     147.802 162.092 169.001  0.00  0.00    +0.000 HD
ENDBRANCH  17  23
BRANCH  16  25
ATOM     25  O4  UNL     1     146.948 165.221 168.953  0.00  0.00    +0.000 OA
ATOM     26  H18 UNL     1     146.745 165.351 169.915  0.00  0.00    +0.000 HD
ENDBRANCH  16  25
ENDBRANCH  10  13
BRANCH   1  27
ATOM     27  C7  UNL     1     154.372 158.231 168.933  0.00  0.00    +0.000 C 
BRANCH  27  31
ATOM     28  I1  UNL     1     155.286 160.478 173.825  0.00  0.00    +0.000 I 
ATOM     29  C1  UNL     1     155.920 159.493 172.102  0.00  0.00    +0.000 A 
ATOM     30  C2  UNL     1     155.006 159.184 171.102  0.00  0.00    +0.000 A 
ATOM     31  C3  UNL     1     155.389 158.537 169.957  0.00  0.00    +0.000 A 
ATOM     32  C4  UNL     1     156.688 158.166 169.747  0.00  0.00    +0.000 A 
ATOM     33  C5  UNL     1     157.619 158.461 170.727  0.00  0.00    +0.000 A 
ATOM     34  C6  UNL     1     157.237 159.114 171.883  0.00  0.00    +0.000 A 
ENDBRANCH  27  31
ENDBRANCH   1  27
TORSDOF 6
ENDMDL
MODEL 3
REMARK VINA RESULT:      -6.5      1.221      1.689
REMARK  Name = ./3D_structures\o44_MMV1593514_3D.pdb
REMARK  7 active torsions:
REMARK  status: ('A' for Active; 'I' for Inactive)
REMARK    1  A    between atoms: C3_4  and  C7_8
REMARK    2  A    between atoms: C7_8  and  N1_9
REMARK    3  A    between atoms: N5_18  and  C13_19
REMARK    4  A    between atoms: C14_21  and  C15_22
REMARK    5  A    between atoms: N6_24  and  C16_25
REMARK    6  A    between atoms: C17_26  and  O4_29
REMARK    7  A    between atoms: C18_27  and  O3_28
REMARK                            x       y       z     vdW  Elec       q    Type
REMARK                         _______ _______ _______ _____ _____    ______ ____
ROOT
ATOM      1  N1  UNL     1     153.238 160.198 169.515  0.00  0.00    +0.000 N 
ATOM      2  C8  UNL     1     151.834 160.137 169.349  0.00  0.00    +0.000 C 
ATOM      3  N2  UNL     1     151.070 159.078 169.569  0.00  0.00    +0.000 NA
ATOM      4  C9  UNL     1     149.741 159.110 169.384  0.00  0.00    +0.000 C 
ATOM      5  N3  UNL     1     149.121 160.248 168.957  0.00  0.00    +0.000 NA
ATOM      6  C10 UNL     1     149.842 161.356 168.714  0.00  0.00    +0.000 A 
ATOM      7  C11 UNL     1     151.203 161.302 168.910  0.00  0.00    +0.000 A 
ATOM      8  N4  UNL     1     151.686 162.520 168.604  0.00  0.00    +0.000 NA
ATOM      9  C12 UNL     1     150.691 163.338 168.223  0.00  0.00    +0.000 A 
ATOM     10  N5  UNL     1     149.566 162.605 168.298  0.00  0.00    +0.000 N 
ATOM     11 CL1  UNL     1     148.832 157.651 169.709  0.00  0.00    +0.000 Cl
ATOM     12  H7  UNL     1     153.772 161.061 169.323  0.00  0.00    +0.000 HD
ENDROOT
BRANCH  10  13
ATOM     13  C13 UNL     1     148.229 163.049 167.987  0.00  0.00    +0.000 C 
ATOM     14  O1  UNL     1     148.286 163.974 166.977  0.00  0.00    +0.000 OA
ATOM     15  C14 UNL     1     147.308 164.918 167.157  0.00  0.00    +0.000 C 
ATOM     16  C17 UNL     1     146.810 164.857 168.564  0.00  0.00    +0.000 C 
ATOM     17  C18 UNL     1     147.527 163.688 169.157  0.00  0.00    +0.000 C 
BRANCH  15  18
ATOM     18  C15 UNL     1     146.166 164.580 166.258  0.00  0.00    +0.000 C 
ATOM     19  O2  UNL     1     145.512 165.523 165.763  0.00  0.00    +0.000 OA
ATOM     20  N6  UNL     1     145.826 163.229 165.970  0.00  0.00    +0.000 N 
ATOM     21  C16 UNL     1     144.704 162.903 165.087  0.00  0.00    +0.000 C 
ATOM     22  H11 UNL     1     146.399 162.474 166.404  0.00  0.00    +0.000 HD
ENDBRANCH  15  18
BRANCH  17  23
ATOM     23  O3  UNL     1     146.681 162.799 169.817  0.00  0.00    +0.000 OA
ATOM     24  H17 UNL     1     145.734 163.131 169.778  0.00  0.00    +0.000 HD
ENDBRANCH  17  23
BRANCH  16  25
ATOM     25  O4  UNL     1     145.422 164.698 168.623  0.00  0.00    +0.000 OA
ATOM     26  H18 UNL     1     145.157 163.886 168.120  0.00  0.00    +0.000 HD
ENDBRANCH  16  25
ENDBRANCH  10  13
BRANCH   1  27
ATOM     27  C7  UNL     1     153.934 159.013 169.967  0.00  0.00    +0.000 C 
BRANCH  27  31
ATOM     28  I1  UNL     1     159.154 158.765 168.385  0.00  0.00    +0.000 I 
ATOM     29  C1  UNL     1     157.120 158.426 168.086  0.00  0.00    +0.000 A 
ATOM     30  C2  UNL     1     156.203 158.804 169.059  0.00  0.00    +0.000 A 
ATOM     31  C3  UNL     1     154.859 158.596 168.896  0.00  0.00    +0.000 A 
ATOM     32  C4  UNL     1     154.360 158.008 167.767  0.00  0.00    +0.000 A 
ATOM     33  C5  UNL     1     155.251 157.622 166.782  0.00  0.00    +0.000 A 
ATOM     34  C6  UNL     1     156.607 157.830 166.943  0.00  0.00    +0.000 A 
ENDBRANCH  27  31
ENDBRANCH   1  27
TORSDOF 6
ENDMDL
MODEL 4
REMARK VINA RESULT:      -6.5      2.721      3.373
REMARK  Name = ./3D_structures\o44_MMV1593514_3D.pdb
REMARK  7 active torsions:
REMARK  status: ('A' for Active; 'I' for Inactive)
REMARK    1  A    between atoms: C3_4  and  C7_8
REMARK    2  A    between atoms: C7_8  and  N1_9
REMARK    3  A    between atoms: N5_18  and  C13_19
REMARK    4  A    between atoms: C14_21  and  C15_22
REMARK    5  A    between atoms: N6_24  and  C16_25
REMARK    6  A    between atoms: C17_26  and  O4_29
REMARK    7  A    between atoms: C18_27  and  O3_28
REMARK                            x       y       z     vdW  Elec       q    Type
REMARK                         _______ _______ _______ _____ _____    ______ ____
ROOT
ATOM      1  N1  UNL     1     152.268 161.427 170.536  0.00  0.00    +0.000 N 
ATOM      2  C8  UNL     1     151.193 162.311 170.286  0.00  0.00    +0.000 C 
ATOM      3  N2  UNL     1     151.061 163.534 170.775  0.00  0.00    +0.000 NA
ATOM      4  C9  UNL     1     150.002 164.306 170.484  0.00  0.00    +0.000 C 
ATOM      5  N3  UNL     1     149.011 163.853 169.664  0.00  0.00    +0.000 NA
ATOM      6  C10 UNL     1     149.086 162.620 169.135  0.00  0.00    +0.000 A 
ATOM      7  C11 UNL     1     150.180 161.845 169.447  0.00  0.00    +0.000 A 
ATOM      8  N4  UNL     1     150.020 160.674 168.803  0.00  0.00    +0.000 NA
ATOM      9  C12 UNL     1     148.874 160.677 168.100  0.00  0.00    +0.000 A 
ATOM     10  N5  UNL     1     148.315 161.880 168.317  0.00  0.00    +0.000 N 
ATOM     11 CL1  UNL     1     149.936 165.906 171.189  0.00  0.00    +0.000 Cl
ATOM     12  H7  UNL     1     152.306 160.482 170.118  0.00  0.00    +0.000 HD
ENDROOT
BRANCH  10  13
ATOM     13  C13 UNL     1     147.067 162.359 167.773  0.00  0.00    +0.000 C 
ATOM     14  O1  UNL     1     147.306 163.479 167.021  0.00  0.00    +0.000 OA
ATOM     15  C14 UNL     1     146.251 164.347 167.133  0.00  0.00    +0.000 C 
ATOM     16  C17 UNL     1     145.428 163.979 168.325  0.00  0.00    +0.000 C 
ATOM     17  C18 UNL     1     146.058 162.721 168.831  0.00  0.00    +0.000 C 
BRANCH  15  18
ATOM     18  C15 UNL     1     145.390 164.191 165.924  0.00  0.00    +0.000 C 
ATOM     19  O2  UNL     1     144.788 165.201 165.501  0.00  0.00    +0.000 OA
ATOM     20  N6  UNL     1     145.254 162.935 165.270  0.00  0.00    +0.000 N 
ATOM     21  C16 UNL     1     144.409 162.787 164.084  0.00  0.00    +0.000 C 
ATOM     22  H11 UNL     1     145.775 162.120 165.658  0.00  0.00    +0.000 HD
ENDBRANCH  15  18
BRANCH  17  23
ATOM     23  O3  UNL     1     145.140 161.698 169.059  0.00  0.00    +0.000 OA
ATOM     24  H17 UNL     1     145.383 161.195 169.893  0.00  0.00    +0.000 HD
ENDBRANCH  17  23
BRANCH  16  25
ATOM     25  O4  UNL     1     144.083 163.788 167.996  0.00  0.00    +0.000 OA
ATOM     26  H18 UNL     1     143.994 163.653 167.017  0.00  0.00    +0.000 HD
ENDBRANCH  16  25
ENDBRANCH  10  13
BRANCH   1  27
ATOM     27  C7  UNL     1     153.342 161.867 171.401  0.00  0.00    +0.000 C 
BRANCH  27  31
ATOM     28  I1  UNL     1     155.569 157.535 168.935  0.00  0.00    +0.000 I 
ATOM     29  C1  UNL     1     155.356 158.824 170.558  0.00  0.00    +0.000 A 
ATOM     30  C2  UNL     1     154.464 159.887 170.488  0.00  0.00    +0.000 A 
ATOM     31  C3  UNL     1     154.299 160.754 171.536  0.00  0.00    +0.000 A 
ATOM     32  C4  UNL     1     155.006 160.611 172.698  0.00  0.00    +0.000 A 
ATOM     33  C5  UNL     1     155.901 159.560 172.794  0.00  0.00    +0.000 A 
ATOM     34  C6  UNL     1     156.070 158.685 171.739  0.00  0.00    +0.000 A 
ENDBRANCH  27  31
ENDBRANCH   1  27
TORSDOF 6
ENDMDL
MODEL 5
REMARK VINA RESULT:      -6.4      1.747      2.354
REMARK  Name = ./3D_structures\o44_MMV1593514_3D.pdb
REMARK  7 active torsions:
REMARK  status: ('A' for Active; 'I' for Inactive)
REMARK    1  A    between atoms: C3_4  and  C7_8
REMARK    2  A    between atoms: C7_8  and  N1_9
REMARK    3  A    between atoms: N5_18  and  C13_19
REMARK    4  A    between atoms: C14_21  and  C15_22
REMARK    5  A    between atoms: N6_24  and  C16_25
REMARK    6  A    between atoms: C17_26  and  O4_29
REMARK    7  A    between atoms: C18_27  and  O3_28
REMARK                            x       y       z     vdW  Elec       q    Type
REMARK                         _______ _______ _______ _____ _____    ______ ____
ROOT
ATOM      1  N1  UNL     1     154.072 158.602 167.821  0.00  0.00    +0.000 N 
ATOM      2  C8  UNL     1     153.178 159.450 168.515  0.00  0.00    +0.000 C 
ATOM      3  N2  UNL     1     152.752 159.282 169.757  0.00  0.00    +0.000 NA
ATOM      4  C9  UNL     1     151.900 160.142 170.339  0.00  0.00    +0.000 C 
ATOM      5  N3  UNL     1     151.436 161.232 169.663  0.00  0.00    +0.000 NA
ATOM      6  C10 UNL     1     151.832 161.458 168.398  0.00  0.00    +0.000 A 
ATOM      7  C11 UNL     1     152.705 160.565 167.821  0.00  0.00    +0.000 A 
ATOM      8  N4  UNL     1     152.942 161.008 166.573  0.00  0.00    +0.000 NA
ATOM      9  C12 UNL     1     152.257 162.140 166.338  0.00  0.00    +0.000 A 
ATOM     10  N5  UNL     1     151.581 162.400 167.471  0.00  0.00    +0.000 N 
ATOM     11 CL1  UNL     1     151.406 159.818 171.985  0.00  0.00    +0.000 Cl
ATOM     12  H7  UNL     1     154.363 158.794 166.848  0.00  0.00    +0.000 HD
ENDROOT
BRANCH  10  13
ATOM     13  C13 UNL     1     150.700 163.518 167.708  0.00  0.00    +0.000 C 
ATOM     14  O1  UNL     1     149.447 163.207 167.249  0.00  0.00    +0.000 OA
ATOM     15  C14 UNL     1     148.844 164.332 166.751  0.00  0.00    +0.000 C 
ATOM     16  C17 UNL     1     149.877 165.382 166.498  0.00  0.00    +0.000 C 
ATOM     17  C18 UNL     1     151.143 164.781 167.018  0.00  0.00    +0.000 C 
BRANCH  15  18
ATOM     18  C15 UNL     1     147.910 164.858 167.789  0.00  0.00    +0.000 C 
ATOM     19  O2  UNL     1     146.877 165.447 167.403  0.00  0.00    +0.000 OA
ATOM     20  N6  UNL     1     148.181 164.699 169.177  0.00  0.00    +0.000 N 
ATOM     21  C16 UNL     1     147.262 165.216 170.192  0.00  0.00    +0.000 C 
ATOM     22  H11 UNL     1     149.054 164.200 169.453  0.00  0.00    +0.000 HD
ENDBRANCH  15  18
BRANCH  17  23
ATOM     23  O3  UNL     1     151.847 165.631 167.869  0.00  0.00    +0.000 OA
ATOM     24  H17 UNL     1     151.587 166.585 167.696  0.00  0.00    +0.000 HD
ENDBRANCH  17  23
BRANCH  16  25
ATOM     25  O4  UNL     1     149.572 166.585 167.141  0.00  0.00    +0.000 OA
ATOM     26  H18 UNL     1     148.813 166.448 167.765  0.00  0.00    +0.000 HD
ENDBRANCH  16  25
ENDBRANCH  10  13
BRANCH   1  27
ATOM     27  C7  UNL     1     154.588 157.433 168.501  0.00  0.00    +0.000 C 
BRANCH  27  31
ATOM     28  I1  UNL     1     159.814 158.565 167.397  0.00  0.00    +0.000 I 
ATOM     29  C1  UNL     1     158.224 158.305 168.719  0.00  0.00    +0.000 A 
ATOM     30  C2  UNL     1     156.967 157.966 168.235  0.00  0.00    +0.000 A 
ATOM     31  C3  UNL     1     155.900 157.787 169.075  0.00  0.00    +0.000 A 
ATOM     32  C4  UNL     1     156.025 157.934 170.428  0.00  0.00    +0.000 A 
ATOM     33  C5  UNL     1     157.267 158.271 170.938  0.00  0.00    +0.000 A 
ATOM     34  C6  UNL     1     158.345 158.452 170.093  0.00  0.00    +0.000 A 
ENDBRANCH  27  31
ENDBRANCH   1  27
TORSDOF 6
ENDMDL
MODEL 6
REMARK VINA RESULT:      -6.2      2.220      2.753
REMARK  Name = ./3D_structures\o44_MMV1593514_3D.pdb
REMARK  7 active torsions:
REMARK  status: ('A' for Active; 'I' for Inactive)
REMARK    1  A    between atoms: C3_4  and  C7_8
REMARK    2  A    between atoms: C7_8  and  N1_9
REMARK    3  A    between atoms: N5_18  and  C13_19
REMARK    4  A    between atoms: C14_21  and  C15_22
REMARK    5  A    between atoms: N6_24  and  C16_25
REMARK    6  A    between atoms: C17_26  and  O4_29
REMARK    7  A    between atoms: C18_27  and  O3_28
REMARK                            x       y       z     vdW  Elec       q    Type
REMARK                         _______ _______ _______ _____ _____    ______ ____
ROOT
ATOM      1  N1  UNL     1     155.379 159.465 170.823  0.00  0.00    +0.000 N 
ATOM      2  C8  UNL     1     153.983 159.653 170.698  0.00  0.00    +0.000 C 
ATOM      3  N2  UNL     1     153.082 158.699 170.522  0.00  0.00    +0.000 NA
ATOM      4  C9  UNL     1     151.771 158.971 170.413  0.00  0.00    +0.000 C 
ATOM      5  N3  UNL     1     151.315 160.254 170.478  0.00  0.00    +0.000 NA
ATOM      6  C10 UNL     1     152.181 161.268 170.655  0.00  0.00    +0.000 A 
ATOM      7  C11 UNL     1     153.518 160.968 170.765  0.00  0.00    +0.000 A 
ATOM      8  N4  UNL     1     154.164 162.137 170.933  0.00  0.00    +0.000 NA
ATOM      9  C12 UNL     1     153.292 163.159 170.933  0.00  0.00    +0.000 A 
ATOM     10  N5  UNL     1     152.079 162.605 170.761  0.00  0.00    +0.000 N 
ATOM     11 CL1  UNL     1     150.673 157.628 170.184  0.00  0.00    +0.000 Cl
ATOM     12  H7  UNL     1     156.027 160.259 170.959  0.00  0.00    +0.000 HD
ENDROOT
BRANCH  10  13
ATOM     13  C13 UNL     1     150.817 163.303 170.694  0.00  0.00    +0.000 C 
ATOM     14  O1  UNL     1     150.395 163.341 169.392  0.00  0.00    +0.000 OA
ATOM     15  C14 UNL     1     149.734 164.518 169.153  0.00  0.00    +0.000 C 
ATOM     16  C17 UNL     1     150.059 165.499 170.233  0.00  0.00    +0.000 C 
ATOM     17  C18 UNL     1     150.895 164.721 171.196  0.00  0.00    +0.000 C 
BRANCH  15  18
ATOM     18  C15 UNL     1     148.267 164.249 169.215  0.00  0.00    +0.000 C 
ATOM     19  O2  UNL     1     147.883 163.243 169.850  0.00  0.00    +0.000 OA
ATOM     20  N6  UNL     1     147.331 165.105 168.572  0.00  0.00    +0.000 N 
ATOM     21  C16 UNL     1     145.893 164.837 168.636  0.00  0.00    +0.000 C 
ATOM     22  H11 UNL     1     147.696 165.933 168.054  0.00  0.00    +0.000 HD
ENDBRANCH  15  18
BRANCH  17  23
ATOM     23  O3  UNL     1     150.469 164.839 172.517  0.00  0.00    +0.000 OA
ATOM     24  H17 UNL     1     150.246 165.796 172.723  0.00  0.00    +0.000 HD
ENDBRANCH  17  23
BRANCH  16  25
ATOM     25  O4  UNL     1     148.908 166.011 170.841  0.00  0.00    +0.000 OA
ATOM     26  H18 UNL     1     148.124 165.457 170.592  0.00  0.00    +0.000 HD
ENDBRANCH  16  25
ENDBRANCH  10  13
BRANCH   1  27
ATOM     27  C7  UNL     1     155.906 158.119 170.759  0.00  0.00    +0.000 C 
BRANCH  27  31
ATOM     28  I1  UNL     1     157.166 156.559 165.680  0.00  0.00    +0.000 I 
ATOM     29  C1  UNL     1     157.632 157.460 167.501  0.00  0.00    +0.000 A 
ATOM     30  C2  UNL     1     156.683 157.508 168.515  0.00  0.00    +0.000 A 
ATOM     31  C3  UNL     1     156.955 158.093 169.723  0.00  0.00    +0.000 A 
ATOM     32  C4  UNL     1     158.174 158.655 169.986  0.00  0.00    +0.000 A 
ATOM     33  C5  UNL     1     159.137 158.620 168.993  0.00  0.00    +0.000 A 
ATOM     34  C6  UNL     1     158.866 158.032 167.773  0.00  0.00    +0.000 A 
ENDBRANCH  27  31
ENDBRANCH   1  27
TORSDOF 6
ENDMDL
MODEL 7
REMARK VINA RESULT:      -6.2      5.957      6.710
REMARK  Name = ./3D_structures\o44_MMV1593514_3D.pdb
REMARK  7 active torsions:
REMARK  status: ('A' for Active; 'I' for Inactive)
REMARK    1  A    between atoms: C3_4  and  C7_8
REMARK    2  A    between atoms: C7_8  and  N1_9
REMARK    3  A    between atoms: N5_18  and  C13_19
REMARK    4  A    between atoms: C14_21  and  C15_22
REMARK    5  A    between atoms: N6_24  and  C16_25
REMARK    6  A    between atoms: C17_26  and  O4_29
REMARK    7  A    between atoms: C18_27  and  O3_28
REMARK                            x       y       z     vdW  Elec       q    Type
REMARK                         _______ _______ _______ _____ _____    ______ ____
ROOT
ATOM      1  N1  UNL     1     145.916 155.880 168.377  0.00  0.00    +0.000 N 
ATOM      2  C8  UNL     1     145.555 157.133 168.927  0.00  0.00    +0.000 C 
ATOM      3  N2  UNL     1     145.007 157.333 170.115  0.00  0.00    +0.000 NA
ATOM      4  C9  UNL     1     144.695 158.562 170.557  0.00  0.00    +0.000 C 
ATOM      5  N3  UNL     1     144.934 159.663 169.788  0.00  0.00    +0.000 NA
ATOM      6  C10 UNL     1     145.489 159.526 168.571  0.00  0.00    +0.000 A 
ATOM      7  C11 UNL     1     145.800 158.258 168.138  0.00  0.00    +0.000 A 
ATOM      8  N4  UNL     1     146.334 158.390 166.910  0.00  0.00    +0.000 NA
ATOM      9  C12 UNL     1     146.373 159.684 166.550  0.00  0.00    +0.000 A 
ATOM     10  N5  UNL     1     145.849 160.366 167.584  0.00  0.00    +0.000 N 
ATOM     11 CL1  UNL     1     143.975 158.704 172.145  0.00  0.00    +0.000 Cl
ATOM     12  H7  UNL     1     146.342 155.798 167.440  0.00  0.00    +0.000 HD
ENDROOT
BRANCH  10  13
ATOM     13  C13 UNL     1     145.677 161.796 167.671  0.00  0.00    +0.000 C 
ATOM     14  O1  UNL     1     145.963 162.357 166.454  0.00  0.00    +0.000 OA
ATOM     15  C14 UNL     1     146.545 163.585 166.635  0.00  0.00    +0.000 C 
ATOM     16  C17 UNL     1     147.038 163.700 168.042  0.00  0.00    +0.000 C 
ATOM     17  C18 UNL     1     146.571 162.441 168.697  0.00  0.00    +0.000 C 
BRANCH  15  18
ATOM     18  C15 UNL     1     145.499 164.630 166.437  0.00  0.00    +0.000 C 
ATOM     19  O2  UNL     1     144.331 164.365 166.796  0.00  0.00    +0.000 OA
ATOM     20  N6  UNL     1     145.814 165.891 165.857  0.00  0.00    +0.000 N 
ATOM     21  C16 UNL     1     144.784 166.914 165.665  0.00  0.00    +0.000 C 
ATOM     22  H11 UNL     1     146.801 166.069 165.573  0.00  0.00    +0.000 HD
ENDBRANCH  15  18
BRANCH  17  23
ATOM     23  O3  UNL     1     145.916 162.660 169.908  0.00  0.00    +0.000 OA
ATOM     24  H17 UNL     1     146.089 161.897 170.537  0.00  0.00    +0.000 HD
ENDBRANCH  17  23
BRANCH  16  25
ATOM     25  O4  UNL     1     146.535 164.836 168.683  0.00  0.00    +0.000 OA
ATOM     26  H18 UNL     1     147.200 165.570 168.634  0.00  0.00    +0.000 HD
ENDBRANCH  16  25
ENDBRANCH  10  13
BRANCH   1  27
ATOM     27  C7  UNL     1     145.680 154.686 169.160  0.00  0.00    +0.000 C 
BRANCH  27  31
ATOM     28  I1  UNL     1     150.163 154.480 172.271  0.00  0.00    +0.000 I 
ATOM     29  C1  UNL     1     148.999 153.829 170.669  0.00  0.00    +0.000 A 
ATOM     30  C2  UNL     1     147.769 154.424 170.417  0.00  0.00    +0.000 A 
ATOM     31  C3  UNL     1     146.979 154.021 169.374  0.00  0.00    +0.000 A 
ATOM     32  C4  UNL     1     147.366 153.015 168.532  0.00  0.00    +0.000 A 
ATOM     33  C5  UNL     1     148.588 152.406 168.760  0.00  0.00    +0.000 A 
ATOM     34  C6  UNL     1     149.387 152.810 169.812  0.00  0.00    +0.000 A 
ENDBRANCH  27  31
ENDBRANCH   1  27
TORSDOF 6
ENDMDL
MODEL 8
REMARK VINA RESULT:      -6.1      2.594      3.412
REMARK  Name = ./3D_structures\o44_MMV1593514_3D.pdb
REMARK  7 active torsions:
REMARK  status: ('A' for Active; 'I' for Inactive)
REMARK    1  A    between atoms: C3_4  and  C7_8
REMARK    2  A    between atoms: C7_8  and  N1_9
REMARK    3  A    between atoms: N5_18  and  C13_19
REMARK    4  A    between atoms: C14_21  and  C15_22
REMARK    5  A    between atoms: N6_24  and  C16_25
REMARK    6  A    between atoms: C17_26  and  O4_29
REMARK    7  A    between atoms: C18_27  and  O3_28
REMARK                            x       y       z     vdW  Elec       q    Type
REMARK                         _______ _______ _______ _____ _____    ______ ____
ROOT
ATOM      1  N1  UNL     1     153.124 160.692 166.891  0.00  0.00    +0.000 N 
ATOM      2  C8  UNL     1     152.265 161.794 166.672  0.00  0.00    +0.000 C 
ATOM      3  N2  UNL     1     152.540 162.863 165.941  0.00  0.00    +0.000 NA
ATOM      4  C9  UNL     1     151.661 163.866 165.787  0.00  0.00    +0.000 C 
ATOM      5  N3  UNL     1     150.436 163.820 166.386  0.00  0.00    +0.000 NA
ATOM      6  C10 UNL     1     150.096 162.761 167.141  0.00  0.00    +0.000 A 
ATOM      7  C11 UNL     1     151.012 161.745 167.286  0.00  0.00    +0.000 A 
ATOM      8  N4  UNL     1     150.440 160.818 168.076  0.00  0.00    +0.000 NA
ATOM      9  C12 UNL     1     149.204 161.206 168.436  0.00  0.00    +0.000 A 
ATOM     10  N5  UNL     1     149.012 162.401 167.852  0.00  0.00    +0.000 N 
ATOM     11 CL1  UNL     1     152.136 165.228 164.797  0.00  0.00    +0.000 Cl
ATOM     12  H7  UNL     1     152.842 159.888 167.475  0.00  0.00    +0.000 HD
ENDROOT
BRANCH  10  13
ATOM     13  C13 UNL     1     147.828 163.222 167.943  0.00  0.00    +0.000 C 
ATOM     14  O1  UNL     1     147.988 164.330 167.154  0.00  0.00    +0.000 OA
ATOM     15  C14 UNL     1     147.366 165.406 167.733  0.00  0.00    +0.000 C 
ATOM     16  C17 UNL     1     147.103 165.112 169.174  0.00  0.00    +0.000 C 
ATOM     17  C18 UNL     1     147.537 163.692 169.344  0.00  0.00    +0.000 C 
BRANCH  15  18
ATOM     18  C15 UNL     1     146.047 165.597 167.063  0.00  0.00    +0.000 C 
ATOM     19  O2  UNL     1     145.730 166.754 166.713  0.00  0.00    +0.000 OA
ATOM     20  N6  UNL     1     145.172 164.500 166.827  0.00  0.00    +0.000 N 
ATOM     21  C16 UNL     1     143.878 164.692 166.168  0.00  0.00    +0.000 C 
ATOM     22  H11 UNL     1     145.477 163.552 167.135  0.00  0.00    +0.000 HD
ENDBRANCH  15  18
BRANCH  17  23
ATOM     23  O3  UNL     1     146.587 162.898 169.983  0.00  0.00    +0.000 OA
ATOM     24  H17 UNL     1     145.842 162.673 169.348  0.00  0.00    +0.000 HD
ENDBRANCH  17  23
BRANCH  16  25
ATOM     25  O4  UNL     1     145.757 165.286 169.508  0.00  0.00    +0.000 OA
ATOM     26  H18 UNL     1     145.393 166.077 169.033  0.00  0.00    +0.000 HD
ENDBRANCH  16  25
ENDBRANCH  10  13
BRANCH   1  27
ATOM     27  C7  UNL     1     154.433 160.701 166.274  0.00  0.00    +0.000 C 
BRANCH  27  31
ATOM     28  I1  UNL     1     158.024 158.618 169.820  0.00  0.00    +0.000 I 
ATOM     29  C1  UNL     1     156.709 158.445 168.213  0.00  0.00    +0.000 A 
ATOM     30  C2  UNL     1     156.016 159.561 167.760  0.00  0.00    +0.000 A 
ATOM     31  C3  UNL     1     155.144 159.483 166.706  0.00  0.00    +0.000 A 
ATOM     32  C4  UNL     1     154.917 158.304 166.054  0.00  0.00    +0.000 A 
ATOM     33  C5  UNL     1     155.594 157.176 166.485  0.00  0.00    +0.000 A 
ATOM     34  C6  UNL     1     156.474 157.251 167.547  0.00  0.00    +0.000 A 
ENDBRANCH  27  31
ENDBRANCH   1  27
TORSDOF 6
ENDMDL
MODEL 9
REMARK VINA RESULT:      -6.1      8.486     11.339
REMARK  Name = ./3D_structures\o44_MMV1593514_3D.pdb
REMARK  7 active torsions:
REMARK  status: ('A' for Active; 'I' for Inactive)
REMARK    1  A    between atoms: C3_4  and  C7_8
REMARK    2  A    between atoms: C7_8  and  N1_9
REMARK    3  A    between atoms: N5_18  and  C13_19
REMARK    4  A    between atoms: C14_21  and  C15_22
REMARK    5  A    between atoms: N6_24  and  C16_25
REMARK    6  A    between atoms: C17_26  and  O4_29
REMARK    7  A    between atoms: C18_27  and  O3_28
REMARK                            x       y       z     vdW  Elec       q    Type
REMARK                         _______ _______ _______ _____ _____    ______ ____
ROOT
ATOM      1  N1  UNL     1     159.754 160.597 168.248  0.00  0.00    +0.000 N 
ATOM      2  C8  UNL     1     158.870 159.530 167.964  0.00  0.00    +0.000 C 
ATOM      3  N2  UNL     1     157.676 159.344 168.502  0.00  0.00    +0.000 NA
ATOM      4  C9  UNL     1     156.901 158.298 168.172  0.00  0.00    +0.000 C 
ATOM      5  N3  UNL     1     157.323 157.378 167.258  0.00  0.00    +0.000 NA
ATOM      6  C10 UNL     1     158.527 157.510 166.675  0.00  0.00    +0.000 A 
ATOM      7  C11 UNL     1     159.304 158.589 167.029  0.00  0.00    +0.000 A 
ATOM      8  N4  UNL     1     160.442 158.495 166.316  0.00  0.00    +0.000 NA
ATOM      9  C12 UNL     1     160.416 157.405 165.531  0.00  0.00    +0.000 A 
ATOM     10  N5  UNL     1     159.232 156.814 165.766  0.00  0.00    +0.000 N 
ATOM     11 CL1  UNL     1     155.340 158.156 168.949  0.00  0.00    +0.000 Cl
ATOM     12  H7  UNL     1     160.676 160.680 167.788  0.00  0.00    +0.000 HD
ENDROOT
BRANCH  10  13
ATOM     13  C13 UNL     1     158.740 155.602 165.154  0.00  0.00    +0.000 C 
ATOM     14  O1  UNL     1     159.734 155.050 164.390  0.00  0.00    +0.000 OA
ATOM     15  C14 UNL     1     159.189 154.449 163.285  0.00  0.00    +0.000 C 
ATOM     16  C17 UNL     1     157.797 154.952 163.080  0.00  0.00    +0.000 C 
ATOM     17  C18 UNL     1     157.546 155.829 164.264  0.00  0.00    +0.000 C 
BRANCH  15  18
ATOM     18  C15 UNL     1     159.106 152.982 163.545  0.00  0.00    +0.000 C 
ATOM     19  O2  UNL     1     159.252 152.207 162.576  0.00  0.00    +0.000 OA
ATOM     20  N6  UNL     1     158.869 152.476 164.853  0.00  0.00    +0.000 N 
ATOM     21  C16 UNL     1     158.789 151.036 165.104  0.00  0.00    +0.000 C 
ATOM     22  H11 UNL     1     158.753 153.160 165.632  0.00  0.00    +0.000 HD
ENDBRANCH  15  18
BRANCH  17  23
ATOM     23  O3  UNL     1     156.343 155.552 164.910  0.00  0.00    +0.000 OA
ATOM     24  H17 UNL     1     155.570 155.838 164.337  0.00  0.00    +0.000 HD
ENDBRANCH  17  23
BRANCH  16  25
ATOM     25  O4  UNL     1     156.869 153.909 163.002  0.00  0.00    +0.000 OA
ATOM     26  H18 UNL     1     156.767 153.621 162.059  0.00  0.00    +0.000 HD
ENDBRANCH  16  25
ENDBRANCH  10  13
BRANCH   1  27
ATOM     27  C7  UNL     1     159.346 161.597 169.212  0.00  0.00    +0.000 C 
BRANCH  27  31
ATOM     28  I1  UNL     1     164.751 162.090 168.620  0.00  0.00    +0.000 I 
ATOM     29  C1  UNL     1     162.936 162.630 169.487  0.00  0.00    +0.000 A 
ATOM     30  C2  UNL     1     161.765 161.984 169.109  0.00  0.00    +0.000 A 
ATOM     31  C3  UNL     1     160.555 162.314 169.659  0.00  0.00    +0.000 A 
ATOM     32  C4  UNL     1     160.444 163.295 170.605  0.00  0.00    +0.000 A 
ATOM     33  C5  UNL     1     161.595 163.955 171.000  0.00  0.00    +0.000 A 
ATOM     34  C6  UNL     1     162.817 163.624 170.448  0.00  0.00    +0.000 A 
ENDBRANCH  27  31
ENDBRANCH   1  27
TORSDOF 6
ENDMDL
