MODEL 1
REMARK VINA RESULT:      -5.4      0.000      0.000
REMARK  Name = ./3D_structures\o46_MMV1581030_3D.pdb
REMARK  4 active torsions:
REMARK  status: ('A' for Active; 'I' for Inactive)
REMARK    1  A    between atoms: C4_5  and  C5_6
REMARK    2  A    between atoms: C5_6  and  C6_7
REMARK    3  A    between atoms: N1_9  and  C7_10
REMARK    4  A    between atoms: N1_9  and  C13_16
REMARK                            x       y       z     vdW  Elec       q    Type
REMARK                         _______ _______ _______ _____ _____    ______ ____
ROOT
ATOM      1  C5  UNL     1     157.036 158.766 169.026  0.00  0.00    +0.000 C 
ATOM      2  C14 UNL     1     158.088 158.343 170.042  0.00  0.00    +0.000 C 
ATOM      3  C15 UNL     1     158.960 159.447 169.425  0.00  0.00    +0.000 C 
ATOM      4  C16 UNL     1     157.620 160.131 169.133  0.00  0.00    +0.000 C 
ENDROOT
BRANCH   1   9
ATOM      5 CL1  UNL     1     157.556 156.073 163.664  0.00  0.00    +0.000 Cl
ATOM      6  C1  UNL     1     157.397 156.911 165.196  0.00  0.00    +0.000 A 
ATOM      7  C2  UNL     1     157.460 156.171 166.355  0.00  0.00    +0.000 A 
ATOM      8  C3  UNL     1     157.342 156.770 167.566  0.00  0.00    +0.000 A 
ATOM      9  C4  UNL     1     157.152 158.155 167.714  0.00  0.00    +0.000 A 
ATOM     10  C17 UNL     1     157.091 158.869 166.558  0.00  0.00    +0.000 A 
ATOM     11  C18 UNL     1     157.213 158.254 165.304  0.00  0.00    +0.000 A 
ENDBRANCH   1   9
BRANCH   1  12
ATOM     12  C6  UNL     1     155.682 158.590 169.601  0.00  0.00    +0.000 C 
ATOM     13  O1  UNL     1     155.518 157.605 170.392  0.00  0.00    +0.000 OA
ATOM     14  N1  UNL     1     154.584 159.414 169.342  0.00  0.00    +0.000 N 
ATOM     15  C13 UNL     1     154.693 160.516 168.433  0.00  0.00    +0.000 C 
BRANCH  14  16
ATOM     16  C7  UNL     1     153.360 159.159 169.973  0.00  0.00    +0.000 A 
ATOM     17  C8  UNL     1     152.439 158.213 169.548  0.00  0.00    +0.000 A 
ATOM     18  C9  UNL     1     151.259 157.980 170.176  0.00  0.00    +0.000 A 
ATOM     19  C10 UNL     1     150.950 158.718 171.293  0.00  0.00    +0.000 A 
ATOM     20  C11 UNL     1     151.819 159.671 171.765  0.00  0.00    +0.000 A 
ATOM     21  C12 UNL     1     153.012 159.875 171.094  0.00  0.00    +0.000 A 
ENDBRANCH  14  16
ENDBRANCH   1  12
TORSDOF 3
ENDMDL
MODEL 2
REMARK VINA RESULT:      -5.4      2.133      3.222
REMARK  Name = ./3D_structures\o46_MMV1581030_3D.pdb
REMARK  4 active torsions:
REMARK  status: ('A' for Active; 'I' for Inactive)
REMARK    1  A    between atoms: C4_5  and  C5_6
REMARK    2  A    between atoms: C5_6  and  C6_7
REMARK    3  A    between atoms: N1_9  and  C7_10
REMARK    4  A    between atoms: N1_9  and  C13_16
REMARK                            x       y       z     vdW  Elec       q    Type
REMARK                         _______ _______ _______ _____ _____    ______ ____
ROOT
ATOM      1  C5  UNL     1     155.850 159.424 166.740  0.00  0.00    +0.000 C 
ATOM      2  C14 UNL     1     156.211 160.729 166.045  0.00  0.00    +0.000 C 
ATOM      3  C15 UNL     1     155.249 160.270 164.938  0.00  0.00    +0.000 C 
ATOM      4  C16 UNL     1     154.523 159.551 166.080  0.00  0.00    +0.000 C 
ENDROOT
BRANCH   1   9
ATOM      5 CL1  UNL     1     158.907 154.527 165.020  0.00  0.00    +0.000 Cl
ATOM      6  C1  UNL     1     158.070 155.978 165.540  0.00  0.00    +0.000 A 
ATOM      7  C2  UNL     1     156.707 156.049 165.353  0.00  0.00    +0.000 A 
ATOM      8  C3  UNL     1     156.014 157.149 165.736  0.00  0.00    +0.000 A 
ATOM      9  C4  UNL     1     156.624 158.264 166.335  0.00  0.00    +0.000 A 
ATOM     10  C17 UNL     1     157.970 158.176 166.511  0.00  0.00    +0.000 A 
ATOM     11  C18 UNL     1     158.693 157.041 166.117  0.00  0.00    +0.000 A 
ENDBRANCH   1   9
BRANCH   1  12
ATOM     12  C6  UNL     1     155.867 159.615 168.209  0.00  0.00    +0.000 C 
ATOM     13  O1  UNL     1     156.619 160.539 168.659  0.00  0.00    +0.000 OA
ATOM     14  N1  UNL     1     155.128 158.863 169.128  0.00  0.00    +0.000 N 
ATOM     15  C13 UNL     1     154.293 157.786 168.689  0.00  0.00    +0.000 C 
BRANCH  14  16
ATOM     16  C7  UNL     1     155.209 159.163 170.494  0.00  0.00    +0.000 A 
ATOM     17  C8  UNL     1     156.204 158.702 171.342  0.00  0.00    +0.000 A 
ATOM     18  C9  UNL     1     156.264 159.005 172.663  0.00  0.00    +0.000 A 
ATOM     19  C10 UNL     1     155.289 159.812 173.198  0.00  0.00    +0.000 A 
ATOM     20  C11 UNL     1     154.276 160.302 172.411  0.00  0.00    +0.000 A 
ATOM     21  C12 UNL     1     154.254 159.967 171.069  0.00  0.00    +0.000 A 
ENDBRANCH  14  16
ENDBRANCH   1  12
TORSDOF 3
ENDMDL
MODEL 3
REMARK VINA RESULT:      -5.3      2.496      3.367
REMARK  Name = ./3D_structures\o46_MMV1581030_3D.pdb
REMARK  4 active torsions:
REMARK  status: ('A' for Active; 'I' for Inactive)
REMARK    1  A    between atoms: C4_5  and  C5_6
REMARK    2  A    between atoms: C5_6  and  C6_7
REMARK    3  A    between atoms: N1_9  and  C7_10
REMARK    4  A    between atoms: N1_9  and  C13_16
REMARK                            x       y       z     vdW  Elec       q    Type
REMARK                         _______ _______ _______ _____ _____    ______ ____
ROOT
ATOM      1  C5  UNL     1     156.050 158.483 169.398  0.00  0.00    +0.000 C 
ATOM      2  C14 UNL     1     155.608 157.262 170.191  0.00  0.00    +0.000 C 
ATOM      3  C15 UNL     1     156.527 157.796 171.301  0.00  0.00    +0.000 C 
ATOM      4  C16 UNL     1     156.188 159.168 170.711  0.00  0.00    +0.000 C 
ENDROOT
BRANCH   1   9
ATOM      5 CL1  UNL     1     161.109 157.740 166.213  0.00  0.00    +0.000 Cl
ATOM      6  C1  UNL     1     159.668 157.992 167.180  0.00  0.00    +0.000 A 
ATOM      7  C2  UNL     1     158.488 157.420 166.757  0.00  0.00    +0.000 A 
ATOM      8  C3  UNL     1     157.346 157.585 167.468  0.00  0.00    +0.000 A 
ATOM      9  C4  UNL     1     157.290 158.332 168.656  0.00  0.00    +0.000 A 
ATOM     10  C17 UNL     1     158.464 158.890 169.058  0.00  0.00    +0.000 A 
ATOM     11  C18 UNL     1     159.648 158.723 168.327  0.00  0.00    +0.000 A 
ENDBRANCH   1   9
BRANCH   1  12
ATOM     12  C6  UNL     1     154.942 158.950 168.533  0.00  0.00    +0.000 C 
ATOM     13  O1  UNL     1     154.041 158.096 168.244  0.00  0.00    +0.000 OA
ATOM     14  N1  UNL     1     154.813 160.241 168.015  0.00  0.00    +0.000 N 
ATOM     15  C13 UNL     1     155.811 161.236 168.272  0.00  0.00    +0.000 C 
BRANCH  14  16
ATOM     16  C7  UNL     1     153.699 160.567 167.231  0.00  0.00    +0.000 A 
ATOM     17  C8  UNL     1     153.638 160.424 165.853  0.00  0.00    +0.000 A 
ATOM     18  C9  UNL     1     152.548 160.745 165.113  0.00  0.00    +0.000 A 
ATOM     19  C10 UNL     1     151.438 161.240 165.755  0.00  0.00    +0.000 A 
ATOM     20  C11 UNL     1     151.434 161.406 167.118  0.00  0.00    +0.000 A 
ATOM     21  C12 UNL     1     152.568 161.066 167.834  0.00  0.00    +0.000 A 
ENDBRANCH  14  16
ENDBRANCH   1  12
TORSDOF 3
ENDMDL
MODEL 4
REMARK VINA RESULT:      -5.3      3.086      4.424
REMARK  Name = ./3D_structures\o46_MMV1581030_3D.pdb
REMARK  4 active torsions:
REMARK  status: ('A' for Active; 'I' for Inactive)
REMARK    1  A    between atoms: C4_5  and  C5_6
REMARK    2  A    between atoms: C5_6  and  C6_7
REMARK    3  A    between atoms: N1_9  and  C7_10
REMARK    4  A    between atoms: N1_9  and  C13_16
REMARK                            x       y       z     vdW  Elec       q    Type
REMARK                         _______ _______ _______ _____ _____    ______ ____
ROOT
ATOM      1  C5  UNL     1     155.405 159.051 166.990  0.00  0.00    +0.000 C 
ATOM      2  C14 UNL     1     155.273 157.599 166.552  0.00  0.00    +0.000 C 
ATOM      3  C15 UNL     1     156.360 157.935 165.518  0.00  0.00    +0.000 C 
ATOM      4  C16 UNL     1     156.827 158.949 166.566  0.00  0.00    +0.000 C 
ENDROOT
BRANCH   1   9
ATOM      5 CL1  UNL     1     152.257 163.120 163.857  0.00  0.00    +0.000 Cl
ATOM      6  C1  UNL     1     153.121 161.903 164.777  0.00  0.00    +0.000 A 
ATOM      7  C2  UNL     1     154.477 162.062 164.959  0.00  0.00    +0.000 A 
ATOM      8  C3  UNL     1     155.192 161.148 165.662  0.00  0.00    +0.000 A 
ATOM      9  C4  UNL     1     154.611 160.006 166.238  0.00  0.00    +0.000 A 
ATOM     10  C17 UNL     1     153.271 159.866 166.046  0.00  0.00    +0.000 A 
ATOM     11  C18 UNL     1     152.527 160.807 165.321  0.00  0.00    +0.000 A 
ENDBRANCH   1   9
BRANCH   1  12
ATOM     12  C6  UNL     1     155.165 159.160 168.447  0.00  0.00    +0.000 C 
ATOM     13  O1  UNL     1     154.346 158.328 168.958  0.00  0.00    +0.000 OA
ATOM     14  N1  UNL     1     155.764 160.097 169.294  0.00  0.00    +0.000 N 
ATOM     15  C13 UNL     1     156.666 161.081 168.776  0.00  0.00    +0.000 C 
BRANCH  14  16
ATOM     16  C7  UNL     1     155.477 160.077 170.665  0.00  0.00    +0.000 A 
ATOM     17  C8  UNL     1     156.235 159.414 171.618  0.00  0.00    +0.000 A 
ATOM     18  C9  UNL     1     155.939 159.409 172.942  0.00  0.00    +0.000 A 
ATOM     19  C10 UNL     1     154.828 160.096 173.371  0.00  0.00    +0.000 A 
ATOM     20  C11 UNL     1     154.036 160.773 172.478  0.00  0.00    +0.000 A 
ATOM     21  C12 UNL     1     154.375 160.752 171.137  0.00  0.00    +0.000 A 
ENDBRANCH  14  16
ENDBRANCH   1  12
TORSDOF 3
ENDMDL
MODEL 5
REMARK VINA RESULT:      -5.3      2.541      3.203
REMARK  Name = ./3D_structures\o46_MMV1581030_3D.pdb
REMARK  4 active torsions:
REMARK  status: ('A' for Active; 'I' for Inactive)
REMARK    1  A    between atoms: C4_5  and  C5_6
REMARK    2  A    between atoms: C5_6  and  C6_7
REMARK    3  A    between atoms: N1_9  and  C7_10
REMARK    4  A    between atoms: N1_9  and  C13_16
REMARK                            x       y       z     vdW  Elec       q    Type
REMARK                         _______ _______ _______ _____ _____    ______ ____
ROOT
ATOM      1  C5  UNL     1     156.776 158.578 168.698  0.00  0.00    +0.000 C 
ATOM      2  C14 UNL     1     156.525 157.804 169.984  0.00  0.00    +0.000 C 
ATOM      3  C15 UNL     1     157.908 158.313 170.423  0.00  0.00    +0.000 C 
ATOM      4  C16 UNL     1     157.578 159.515 169.531  0.00  0.00    +0.000 C 
ENDROOT
BRANCH   1   9
ATOM      5 CL1  UNL     1     160.030 155.769 164.479  0.00  0.00    +0.000 Cl
ATOM      6  C1  UNL     1     159.037 156.545 165.699  0.00  0.00    +0.000 A 
ATOM      7  C2  UNL     1     159.545 157.647 166.350  0.00  0.00    +0.000 A 
ATOM      8  C3  UNL     1     158.819 158.283 167.302  0.00  0.00    +0.000 A 
ATOM      9  C4  UNL     1     157.530 157.870 167.679  0.00  0.00    +0.000 A 
ATOM     10  C17 UNL     1     157.045 156.780 167.025  0.00  0.00    +0.000 A 
ATOM     11  C18 UNL     1     157.791 156.119 166.040  0.00  0.00    +0.000 A 
ENDBRANCH   1   9
BRANCH   1  12
ATOM     12  C6  UNL     1     155.497 159.108 168.172  0.00  0.00    +0.000 C 
ATOM     13  O1  UNL     1     154.439 158.474 168.490  0.00  0.00    +0.000 OA
ATOM     14  N1  UNL     1     155.366 160.238 167.360  0.00  0.00    +0.000 N 
ATOM     15  C13 UNL     1     156.520 160.974 166.937  0.00  0.00    +0.000 C 
BRANCH  14  16
ATOM     16  C7  UNL     1     154.093 160.656 166.951  0.00  0.00    +0.000 A 
ATOM     17  C8  UNL     1     153.219 161.395 167.734  0.00  0.00    +0.000 A 
ATOM     18  C9  UNL     1     151.990 161.790 167.317  0.00  0.00    +0.000 A 
ATOM     19  C10 UNL     1     151.580 161.442 166.053  0.00  0.00    +0.000 A 
ATOM     20  C11 UNL     1     152.398 160.711 165.228  0.00  0.00    +0.000 A 
ATOM     21  C12 UNL     1     153.644 160.330 165.693  0.00  0.00    +0.000 A 
ENDBRANCH  14  16
ENDBRANCH   1  12
TORSDOF 3
ENDMDL
MODEL 6
REMARK VINA RESULT:      -5.3      3.376      6.808
REMARK  Name = ./3D_structures\o46_MMV1581030_3D.pdb
REMARK  4 active torsions:
REMARK  status: ('A' for Active; 'I' for Inactive)
REMARK    1  A    between atoms: C4_5  and  C5_6
REMARK    2  A    between atoms: C5_6  and  C6_7
REMARK    3  A    between atoms: N1_9  and  C7_10
REMARK    4  A    between atoms: N1_9  and  C13_16
REMARK                            x       y       z     vdW  Elec       q    Type
REMARK                         _______ _______ _______ _____ _____    ______ ____
ROOT
ATOM      1  C5  UNL     1     155.593 158.761 166.331  0.00  0.00    +0.000 C 
ATOM      2  C14 UNL     1     154.137 158.909 165.912  0.00  0.00    +0.000 C 
ATOM      3  C15 UNL     1     154.378 160.422 166.031  0.00  0.00    +0.000 C 
ATOM      4  C16 UNL     1     155.820 160.067 165.654  0.00  0.00    +0.000 C 
ENDROOT
BRANCH   1   9
ATOM      5 CL1  UNL     1     156.444 158.693 172.293  0.00  0.00    +0.000 Cl
ATOM      6  C1  UNL     1     156.247 158.748 170.552  0.00  0.00    +0.000 A 
ATOM      7  C2  UNL     1     155.195 158.058 169.991  0.00  0.00    +0.000 A 
ATOM      8  C3  UNL     1     154.999 158.067 168.649  0.00  0.00    +0.000 A 
ATOM      9  C4  UNL     1     155.835 158.766 167.762  0.00  0.00    +0.000 A 
ATOM     10  C17 UNL     1     156.869 159.441 168.334  0.00  0.00    +0.000 A 
ATOM     11  C18 UNL     1     157.076 159.435 169.721  0.00  0.00    +0.000 A 
ENDBRANCH   1   9
BRANCH   1  12
ATOM     12  C6  UNL     1     156.187 157.575 165.673  0.00  0.00    +0.000 C 
ATOM     13  O1  UNL     1     155.462 156.529 165.613  0.00  0.00    +0.000 OA
ATOM     14  N1  UNL     1     157.470 157.517 165.121  0.00  0.00    +0.000 N 
ATOM     15  C13 UNL     1     158.347 158.647 165.190  0.00  0.00    +0.000 C 
BRANCH  14  16
ATOM     16  C7  UNL     1     157.906 156.341 164.498  0.00  0.00    +0.000 A 
ATOM     17  C8  UNL     1     157.814 156.092 163.137  0.00  0.00    +0.000 A 
ATOM     18  C9  UNL     1     158.244 154.945 162.554  0.00  0.00    +0.000 A 
ATOM     19  C10 UNL     1     158.802 153.971 163.348  0.00  0.00    +0.000 A 
ATOM     20  C11 UNL     1     158.922 154.157 164.703  0.00  0.00    +0.000 A 
ATOM     21  C12 UNL     1     158.470 155.341 165.256  0.00  0.00    +0.000 A 
ENDBRANCH  14  16
ENDBRANCH   1  12
TORSDOF 3
ENDMDL
MODEL 7
REMARK VINA RESULT:      -5.2      7.298      9.961
REMARK  Name = ./3D_structures\o46_MMV1581030_3D.pdb
REMARK  4 active torsions:
REMARK  status: ('A' for Active; 'I' for Inactive)
REMARK    1  A    between atoms: C4_5  and  C5_6
REMARK    2  A    between atoms: C5_6  and  C6_7
REMARK    3  A    between atoms: N1_9  and  C7_10
REMARK    4  A    between atoms: N1_9  and  C13_16
REMARK                            x       y       z     vdW  Elec       q    Type
REMARK                         _______ _______ _______ _____ _____    ______ ____
ROOT
ATOM      1  C5  UNL     1     149.544 164.825 168.838  0.00  0.00    +0.000 C 
ATOM      2  C14 UNL     1     150.322 166.041 169.319  0.00  0.00    +0.000 C 
ATOM      3  C15 UNL     1     149.401 165.999 170.548  0.00  0.00    +0.000 C 
ATOM      4  C16 UNL     1     149.362 164.492 170.277  0.00  0.00    +0.000 C 
ENDROOT
BRANCH   1   9
ATOM      5 CL1  UNL     1     144.544 166.114 165.736  0.00  0.00    +0.000 Cl
ATOM      6  C1  UNL     1     145.964 165.711 166.682  0.00  0.00    +0.000 A 
ATOM      7  C2  UNL     1     147.200 166.077 166.195  0.00  0.00    +0.000 A 
ATOM      8  C3  UNL     1     148.329 165.789 166.887  0.00  0.00    +0.000 A 
ATOM      9  C4  UNL     1     148.316 165.112 168.119  0.00  0.00    +0.000 A 
ATOM     10  C17 UNL     1     147.087 164.758 168.584  0.00  0.00    +0.000 A 
ATOM     11  C18 UNL     1     145.915 165.055 167.872  0.00  0.00    +0.000 A 
ENDBRANCH   1   9
BRANCH   1  12
ATOM     12  C6  UNL     1     150.437 163.928 168.070  0.00  0.00    +0.000 C 
ATOM     13  O1  UNL     1     151.445 164.466 167.506  0.00  0.00    +0.000 OA
ATOM     14  N1  UNL     1     150.258 162.550 167.918  0.00  0.00    +0.000 N 
ATOM     15  C13 UNL     1     149.126 161.890 168.496  0.00  0.00    +0.000 C 
BRANCH  14  16
ATOM     16  C7  UNL     1     151.193 161.804 167.189  0.00  0.00    +0.000 A 
ATOM     17  C8  UNL     1     151.225 161.721 165.805  0.00  0.00    +0.000 A 
ATOM     18  C9  UNL     1     152.142 160.993 165.119  0.00  0.00    +0.000 A 
ATOM     19  C10 UNL     1     153.093 160.297 165.825  0.00  0.00    +0.000 A 
ATOM     20  C11 UNL     1     153.116 160.338 167.197  0.00  0.00    +0.000 A 
ATOM     21  C12 UNL     1     152.163 161.093 167.857  0.00  0.00    +0.000 A 
ENDBRANCH  14  16
ENDBRANCH   1  12
TORSDOF 3
ENDMDL
MODEL 8
REMARK VINA RESULT:      -5.1      2.701      5.949
REMARK  Name = ./3D_structures\o46_MMV1581030_3D.pdb
REMARK  4 active torsions:
REMARK  status: ('A' for Active; 'I' for Inactive)
REMARK    1  A    between atoms: C4_5  and  C5_6
REMARK    2  A    between atoms: C5_6  and  C6_7
REMARK    3  A    between atoms: N1_9  and  C7_10
REMARK    4  A    between atoms: N1_9  and  C13_16
REMARK                            x       y       z     vdW  Elec       q    Type
REMARK                         _______ _______ _______ _____ _____    ______ ____
ROOT
ATOM      1  C5  UNL     1     156.060 158.541 170.074  0.00  0.00    +0.000 C 
ATOM      2  C14 UNL     1     157.025 159.664 170.428  0.00  0.00    +0.000 C 
ATOM      3  C15 UNL     1     156.583 159.428 171.881  0.00  0.00    +0.000 C 
ATOM      4  C16 UNL     1     156.367 157.983 171.419  0.00  0.00    +0.000 C 
ENDROOT
BRANCH   1   9
ATOM      5 CL1  UNL     1     150.282 160.031 169.249  0.00  0.00    +0.000 Cl
ATOM      6  C1  UNL     1     151.978 159.657 169.492  0.00  0.00    +0.000 A 
ATOM      7  C2  UNL     1     152.354 158.334 169.554  0.00  0.00    +0.000 A 
ATOM      8  C3  UNL     1     153.652 157.992 169.742  0.00  0.00    +0.000 A 
ATOM      9  C4  UNL     1     154.678 158.942 169.882  0.00  0.00    +0.000 A 
ATOM     10  C17 UNL     1     154.288 160.244 169.818  0.00  0.00    +0.000 A 
ATOM     11  C18 UNL     1     152.946 160.604 169.624  0.00  0.00    +0.000 A 
ENDBRANCH   1   9
BRANCH   1  12
ATOM     12  C6  UNL     1     156.580 157.776 168.918  0.00  0.00    +0.000 C 
ATOM     13  O1  UNL     1     156.709 156.518 169.072  0.00  0.00    +0.000 OA
ATOM     14  N1  UNL     1     156.938 158.326 167.683  0.00  0.00    +0.000 N 
ATOM     15  C13 UNL     1     156.852 159.738 167.458  0.00  0.00    +0.000 C 
BRANCH  14  16
ATOM     16  C7  UNL     1     157.391 157.489 166.656  0.00  0.00    +0.000 A 
ATOM     17  C8  UNL     1     156.566 156.735 165.835  0.00  0.00    +0.000 A 
ATOM     18  C9  UNL     1     157.026 155.931 164.844  0.00  0.00    +0.000 A 
ATOM     19  C10 UNL     1     158.382 155.853 164.635  0.00  0.00    +0.000 A 
ATOM     20  C11 UNL     1     159.252 156.576 165.412  0.00  0.00    +0.000 A 
ATOM     21  C12 UNL     1     158.740 157.383 166.412  0.00  0.00    +0.000 A 
ENDBRANCH  14  16
ENDBRANCH   1  12
TORSDOF 3
ENDMDL
MODEL 9
REMARK VINA RESULT:      -5.1      3.713      7.090
REMARK  Name = ./3D_structures\o46_MMV1581030_3D.pdb
REMARK  4 active torsions:
REMARK  status: ('A' for Active; 'I' for Inactive)
REMARK    1  A    between atoms: C4_5  and  C5_6
REMARK    2  A    between atoms: C5_6  and  C6_7
REMARK    3  A    between atoms: N1_9  and  C7_10
REMARK    4  A    between atoms: N1_9  and  C13_16
REMARK                            x       y       z     vdW  Elec       q    Type
REMARK                         _______ _______ _______ _____ _____    ______ ____
ROOT
ATOM      1  C5  UNL     1     156.620 158.234 167.064  0.00  0.00    +0.000 C 
ATOM      2  C14 UNL     1     155.596 157.286 166.455  0.00  0.00    +0.000 C 
ATOM      3  C15 UNL     1     154.751 158.546 166.206  0.00  0.00    +0.000 C 
ATOM      4  C16 UNL     1     156.108 159.250 166.105  0.00  0.00    +0.000 C 
ENDROOT
BRANCH   1   9
ATOM      5 CL1  UNL     1     155.782 159.412 172.912  0.00  0.00    +0.000 Cl
ATOM      6  C1  UNL     1     156.015 159.129 171.197  0.00  0.00    +0.000 A 
ATOM      7  C2  UNL     1     156.339 157.856 170.783  0.00  0.00    +0.000 A 
ATOM      8  C3  UNL     1     156.531 157.584 169.468  0.00  0.00    +0.000 A 
ATOM      9  C4  UNL     1     156.414 158.560 168.464  0.00  0.00    +0.000 A 
ATOM     10  C17 UNL     1     156.094 159.811 168.892  0.00  0.00    +0.000 A 
ATOM     11  C18 UNL     1     155.894 160.098 170.250  0.00  0.00    +0.000 A 
ENDBRANCH   1   9
BRANCH   1  12
ATOM     12  C6  UNL     1     157.988 157.728 166.809  0.00  0.00    +0.000 C 
ATOM     13  O1  UNL     1     158.109 156.475 166.613  0.00  0.00    +0.000 OA
ATOM     14  N1  UNL     1     159.143 158.514 166.769  0.00  0.00    +0.000 N 
ATOM     15  C13 UNL     1     159.078 159.923 167.017  0.00  0.00    +0.000 C 
BRANCH  14  16
ATOM     16  C7  UNL     1     160.379 157.918 166.487  0.00  0.00    +0.000 A 
ATOM     17  C8  UNL     1     160.710 157.331 165.276  0.00  0.00    +0.000 A 
ATOM     18  C9  UNL     1     161.915 156.760 165.024  0.00  0.00    +0.000 A 
ATOM     19  C10 UNL     1     162.864 156.758 166.018  0.00  0.00    +0.000 A 
ATOM     20  C11 UNL     1     162.598 157.324 167.240  0.00  0.00    +0.000 A 
ATOM     21  C12 UNL     1     161.357 157.895 167.454  0.00  0.00    +0.000 A 
ENDBRANCH  14  16
ENDBRANCH   1  12
TORSDOF 3
ENDMDL
