MODEL 1
REMARK VINA RESULT:      -6.1      0.000      0.000
REMARK  Name = ./3D_structures\o47_MMV247764_3D.pdb
REMARK  3 active torsions:
REMARK  status: ('A' for Active; 'I' for Inactive)
REMARK    1  A    between atoms: C4_5  and  C5_6
REMARK    2  A    between atoms: C12_14  and  C14_16
REMARK    3  A    between atoms: C14_16  and  O2_18
REMARK                            x       y       z     vdW  Elec       q    Type
REMARK                         _______ _______ _______ _____ _____    ______ ____
ROOT
ATOM      1  C5  UNL     1     156.602 157.511 167.188  0.00  0.00    +0.000 A 
ATOM      2  N1  UNL     1     157.470 157.812 168.170  0.00  0.00    +0.000 NA
ATOM      3  C6  UNL     1     157.057 158.216 169.380  0.00  0.00    +0.000 A 
ATOM      4  C7  UNL     1     157.993 158.509 170.343  0.00  0.00    +0.000 A 
ATOM      5  C8  UNL     1     157.607 158.927 171.597  0.00  0.00    +0.000 A 
ATOM      6  C9  UNL     1     156.278 159.057 171.902  0.00  0.00    +0.000 A 
ATOM      7  C10 UNL     1     155.307 158.766 170.943  0.00  0.00    +0.000 A 
ATOM      8  C11 UNL     1     155.697 158.349 169.689  0.00  0.00    +0.000 A 
ATOM      9  C12 UNL     1     154.773 158.052 168.718  0.00  0.00    +0.000 A 
ATOM     10  C13 UNL     1     155.273 157.635 167.474  0.00  0.00    +0.000 A 
ATOM     11 CL1  UNL     1     155.722 159.584 173.477  0.00  0.00    +0.000 Cl
ENDROOT
BRANCH   1  16
ATOM     12 BR1  UNL     1     158.660 156.044 161.564  0.00  0.00    +0.000 Br
ATOM     13  C1  UNL     1     158.010 156.414 163.309  0.00  0.00    +0.000 A 
ATOM     14  C2  UNL     1     158.003 157.734 163.759  0.00  0.00    +0.000 A 
ATOM     15  C3  UNL     1     157.542 158.055 165.017  0.00  0.00    +0.000 A 
ATOM     16  C4  UNL     1     157.069 157.073 165.876  0.00  0.00    +0.000 A 
ATOM     17  C15 UNL     1     157.077 155.790 165.438  0.00  0.00    +0.000 A 
ATOM     18  C16 UNL     1     157.541 155.439 164.164  0.00  0.00    +0.000 A 
ENDBRANCH   1  16
BRANCH   9  19
ATOM     19  C14 UNL     1     153.360 158.155 168.933  0.00  0.00    +0.000 C 
ATOM     20  O1  UNL     1     152.583 159.077 168.693  0.00  0.00    +0.000 OA
BRANCH  19  21
ATOM     21  O2  UNL     1     152.716 157.030 169.515  0.00  0.00    +0.000 OA
ATOM     22  H7  UNL     1     151.957 156.547 169.049  0.00  0.00    +0.000 HD
ENDBRANCH  19  21
ENDBRANCH   9  19
TORSDOF 3
ENDMDL
MODEL 2
REMARK VINA RESULT:      -5.8      5.228      7.565
REMARK  Name = ./3D_structures\o47_MMV247764_3D.pdb
REMARK  3 active torsions:
REMARK  status: ('A' for Active; 'I' for Inactive)
REMARK    1  A    between atoms: C4_5  and  C5_6
REMARK    2  A    between atoms: C12_14  and  C14_16
REMARK    3  A    between atoms: C14_16  and  O2_18
REMARK                            x       y       z     vdW  Elec       q    Type
REMARK                         _______ _______ _______ _____ _____    ______ ____
ROOT
ATOM      1  C5  UNL     1     158.050 158.447 168.849  0.00  0.00    +0.000 A 
ATOM      2  N1  UNL     1     157.281 157.708 168.030  0.00  0.00    +0.000 NA
ATOM      3  C6  UNL     1     157.760 157.179 166.895  0.00  0.00    +0.000 A 
ATOM      4  C7  UNL     1     156.924 156.432 166.099  0.00  0.00    +0.000 A 
ATOM      5  C8  UNL     1     157.380 155.873 164.927  0.00  0.00    +0.000 A 
ATOM      6  C9  UNL     1     158.680 156.055 164.537  0.00  0.00    +0.000 A 
ATOM      7  C10 UNL     1     159.550 156.808 165.325  0.00  0.00    +0.000 A 
ATOM      8  C11 UNL     1     159.090 157.367 166.498  0.00  0.00    +0.000 A 
ATOM      9  C12 UNL     1     159.914 158.115 167.302  0.00  0.00    +0.000 A 
ATOM     10  C13 UNL     1     159.349 158.639 168.475  0.00  0.00    +0.000 A 
ATOM     11 CL1  UNL     1     159.322 155.371 163.058  0.00  0.00    +0.000 Cl
ENDROOT
BRANCH   1  16
ATOM     12 BR1  UNL     1     155.902 161.212 173.923  0.00  0.00    +0.000 Br
ATOM     13  C1  UNL     1     156.534 160.288 172.391  0.00  0.00    +0.000 A 
ATOM     14  C2  UNL     1     157.183 161.009 171.389  0.00  0.00    +0.000 A 
ATOM     15  C3  UNL     1     157.660 160.385 170.258  0.00  0.00    +0.000 A 
ATOM     16  C4  UNL     1     157.511 159.017 170.080  0.00  0.00    +0.000 A 
ATOM     17  C15 UNL     1     156.881 158.316 171.055  0.00  0.00    +0.000 A 
ATOM     18  C16 UNL     1     156.387 158.928 172.213  0.00  0.00    +0.000 A 
ENDBRANCH   1  16
BRANCH   9  19
ATOM     19  C14 UNL     1     161.289 158.366 166.986  0.00  0.00    +0.000 C 
ATOM     20  O1  UNL     1     161.800 159.251 166.303  0.00  0.00    +0.000 OA
BRANCH  19  21
ATOM     21  O2  UNL     1     162.246 157.469 167.531  0.00  0.00    +0.000 OA
ATOM     22  H7  UNL     1     163.197 157.425 167.184  0.00  0.00    +0.000 HD
ENDBRANCH  19  21
ENDBRANCH   9  19
TORSDOF 3
ENDMDL
MODEL 3
REMARK VINA RESULT:      -5.6      4.751      6.937
REMARK  Name = ./3D_structures\o47_MMV247764_3D.pdb
REMARK  3 active torsions:
REMARK  status: ('A' for Active; 'I' for Inactive)
REMARK    1  A    between atoms: C4_5  and  C5_6
REMARK    2  A    between atoms: C12_14  and  C14_16
REMARK    3  A    between atoms: C14_16  and  O2_18
REMARK                            x       y       z     vdW  Elec       q    Type
REMARK                         _______ _______ _______ _____ _____    ______ ____
ROOT
ATOM      1  C5  UNL     1     157.953 158.329 168.809  0.00  0.00    +0.000 A 
ATOM      2  N1  UNL     1     159.249 158.493 168.490  0.00  0.00    +0.000 NA
ATOM      3  C6  UNL     1     159.768 157.998 167.357  0.00  0.00    +0.000 A 
ATOM      4  C7  UNL     1     161.101 158.199 167.087  0.00  0.00    +0.000 A 
ATOM      5  C8  UNL     1     161.669 157.706 165.934  0.00  0.00    +0.000 A 
ATOM      6  C9  UNL     1     160.908 157.006 165.037  0.00  0.00    +0.000 A 
ATOM      7  C10 UNL     1     159.553 156.787 165.285  0.00  0.00    +0.000 A 
ATOM      8  C11 UNL     1     158.989 157.281 166.441  0.00  0.00    +0.000 A 
ATOM      9  C12 UNL     1     157.658 157.088 166.722  0.00  0.00    +0.000 A 
ATOM     10  C13 UNL     1     157.180 157.632 167.925  0.00  0.00    +0.000 A 
ATOM     11 CL1  UNL     1     161.570 156.352 163.552  0.00  0.00    +0.000 Cl
ENDROOT
BRANCH   1  16
ATOM     12 BR1  UNL     1     155.771 160.989 173.924  0.00  0.00    +0.000 Br
ATOM     13  C1  UNL     1     156.412 160.097 172.377  0.00  0.00    +0.000 A 
ATOM     14  C2  UNL     1     157.089 160.835 171.406  0.00  0.00    +0.000 A 
ATOM     15  C3  UNL     1     157.574 160.234 170.265  0.00  0.00    +0.000 A 
ATOM     16  C4  UNL     1     157.405 158.874 170.047  0.00  0.00    +0.000 A 
ATOM     17  C15 UNL     1     156.747 158.157 170.992  0.00  0.00    +0.000 A 
ATOM     18  C16 UNL     1     156.245 158.745 172.159  0.00  0.00    +0.000 A 
ENDBRANCH   1  16
BRANCH   9  19
ATOM     19  C14 UNL     1     156.776 156.370 165.851  0.00  0.00    +0.000 C 
ATOM     20  O1  UNL     1     156.985 155.393 165.135  0.00  0.00    +0.000 OA
BRANCH  19  21
ATOM     21  O2  UNL     1     155.434 156.831 165.775  0.00  0.00    +0.000 OA
ATOM     22  H7  UNL     1     155.172 157.765 166.067  0.00  0.00    +0.000 HD
ENDBRANCH  19  21
ENDBRANCH   9  19
TORSDOF 3
ENDMDL
MODEL 4
REMARK VINA RESULT:      -5.6      3.133      3.585
REMARK  Name = ./3D_structures\o47_MMV247764_3D.pdb
REMARK  3 active torsions:
REMARK  status: ('A' for Active; 'I' for Inactive)
REMARK    1  A    between atoms: C4_5  and  C5_6
REMARK    2  A    between atoms: C12_14  and  C14_16
REMARK    3  A    between atoms: C14_16  and  O2_18
REMARK                            x       y       z     vdW  Elec       q    Type
REMARK                         _______ _______ _______ _____ _____    ______ ____
ROOT
ATOM      1  C5  UNL     1     155.801 157.685 166.372  0.00  0.00    +0.000 A 
ATOM      2  N1  UNL     1     155.218 157.303 167.521  0.00  0.00    +0.000 NA
ATOM      3  C6  UNL     1     154.204 157.992 168.065  0.00  0.00    +0.000 A 
ATOM      4  C7  UNL     1     153.649 157.551 169.243  0.00  0.00    +0.000 A 
ATOM      5  C8  UNL     1     152.608 158.233 169.830  0.00  0.00    +0.000 A 
ATOM      6  C9  UNL     1     152.108 159.365 169.245  0.00  0.00    +0.000 A 
ATOM      7  C10 UNL     1     152.652 159.835 168.050  0.00  0.00    +0.000 A 
ATOM      8  C11 UNL     1     153.695 159.151 167.465  0.00  0.00    +0.000 A 
ATOM      9  C12 UNL     1     154.258 159.581 166.289  0.00  0.00    +0.000 A 
ATOM     10  C13 UNL     1     155.316 158.813 165.775  0.00  0.00    +0.000 A 
ATOM     11 CL1  UNL     1     150.785 160.278 169.942  0.00  0.00    +0.000 Cl
ENDROOT
BRANCH   1  16
ATOM     12 BR1  UNL     1     160.712 154.737 164.091  0.00  0.00    +0.000 Br
ATOM     13  C1  UNL     1     159.151 155.585 164.759  0.00  0.00    +0.000 A 
ATOM     14  C2  UNL     1     159.287 156.758 165.501  0.00  0.00    +0.000 A 
ATOM     15  C3  UNL     1     158.185 157.412 166.008  0.00  0.00    +0.000 A 
ATOM     16  C4  UNL     1     156.904 156.923 165.794  0.00  0.00    +0.000 A 
ATOM     17  C15 UNL     1     156.773 155.783 165.073  0.00  0.00    +0.000 A 
ATOM     18  C16 UNL     1     157.877 155.100 164.548  0.00  0.00    +0.000 A 
ENDBRANCH   1  16
BRANCH   9  19
ATOM     19  C14 UNL     1     153.812 160.753 165.596  0.00  0.00    +0.000 C 
ATOM     20  O1  UNL     1     152.813 160.935 164.902  0.00  0.00    +0.000 OA
BRANCH  19  21
ATOM     21  O2  UNL     1     154.626 161.912 165.703  0.00  0.00    +0.000 OA
ATOM     22  H7  UNL     1     154.989 162.231 166.594  0.00  0.00    +0.000 HD
ENDBRANCH  19  21
ENDBRANCH   9  19
TORSDOF 3
ENDMDL
MODEL 5
REMARK VINA RESULT:      -5.6      4.572      6.595
REMARK  Name = ./3D_structures\o47_MMV247764_3D.pdb
REMARK  3 active torsions:
REMARK  status: ('A' for Active; 'I' for Inactive)
REMARK    1  A    between atoms: C4_5  and  C5_6
REMARK    2  A    between atoms: C12_14  and  C14_16
REMARK    3  A    between atoms: C14_16  and  O2_18
REMARK                            x       y       z     vdW  Elec       q    Type
REMARK                         _______ _______ _______ _____ _____    ______ ____
ROOT
ATOM      1  C5  UNL     1     158.686 159.622 168.384  0.00  0.00    +0.000 A 
ATOM      2  N1  UNL     1     159.443 159.099 167.403  0.00  0.00    +0.000 NA
ATOM      3  C6  UNL     1     159.075 157.996 166.736  0.00  0.00    +0.000 A 
ATOM      4  C7  UNL     1     159.892 157.510 165.743  0.00  0.00    +0.000 A 
ATOM      5  C8  UNL     1     159.547 156.380 165.037  0.00  0.00    +0.000 A 
ATOM      6  C9  UNL     1     158.378 155.723 165.315  0.00  0.00    +0.000 A 
ATOM      7  C10 UNL     1     157.530 156.195 166.317  0.00  0.00    +0.000 A 
ATOM      8  C11 UNL     1     157.879 157.325 167.023  0.00  0.00    +0.000 A 
ATOM      9  C12 UNL     1     157.072 157.822 168.016  0.00  0.00    +0.000 A 
ATOM     10  C13 UNL     1     157.517 158.980 168.675  0.00  0.00    +0.000 A 
ATOM     11 CL1  UNL     1     157.882 154.281 164.453  0.00  0.00    +0.000 Cl
ENDROOT
BRANCH   1  16
ATOM     12 BR1  UNL     1     160.802 164.664 171.231  0.00  0.00    +0.000 Br
ATOM     13  C1  UNL     1     160.078 163.122 170.394  0.00  0.00    +0.000 A 
ATOM     14  C2  UNL     1     160.875 162.400 169.507  0.00  0.00    +0.000 A 
ATOM     15  C3  UNL     1     160.396 161.274 168.874  0.00  0.00    +0.000 A 
ATOM     16  C4  UNL     1     159.103 160.823 169.101  0.00  0.00    +0.000 A 
ATOM     17  C15 UNL     1     158.329 161.526 169.964  0.00  0.00    +0.000 A 
ATOM     18  C16 UNL     1     158.793 162.673 170.619  0.00  0.00    +0.000 A 
ENDBRANCH   1  16
BRANCH   9  19
ATOM     19  C14 UNL     1     155.829 157.212 168.386  0.00  0.00    +0.000 C 
ATOM     20  O1  UNL     1     154.762 157.150 167.780  0.00  0.00    +0.000 OA
BRANCH  19  21
ATOM     21  O2  UNL     1     155.784 156.564 169.650  0.00  0.00    +0.000 OA
ATOM     22  H7  UNL     1     155.797 155.555 169.735  0.00  0.00    +0.000 HD
ENDBRANCH  19  21
ENDBRANCH   9  19
TORSDOF 3
ENDMDL
MODEL 6
REMARK VINA RESULT:      -5.6      4.504      5.126
REMARK  Name = ./3D_structures\o47_MMV247764_3D.pdb
REMARK  3 active torsions:
REMARK  status: ('A' for Active; 'I' for Inactive)
REMARK    1  A    between atoms: C4_5  and  C5_6
REMARK    2  A    between atoms: C12_14  and  C14_16
REMARK    3  A    between atoms: C14_16  and  O2_18
REMARK                            x       y       z     vdW  Elec       q    Type
REMARK                         _______ _______ _______ _____ _____    ______ ____
ROOT
ATOM      1  C5  UNL     1     160.207 158.179 167.731  0.00  0.00    +0.000 A 
ATOM      2  N1  UNL     1     159.676 158.412 168.944  0.00  0.00    +0.000 NA
ATOM      3  C6  UNL     1     158.367 158.253 169.187  0.00  0.00    +0.000 A 
ATOM      4  C7  UNL     1     157.884 158.507 170.448  0.00  0.00    +0.000 A 
ATOM      5  C8  UNL     1     156.546 158.355 170.735  0.00  0.00    +0.000 A 
ATOM      6  C9  UNL     1     155.675 157.946 169.761  0.00  0.00    +0.000 A 
ATOM      7  C10 UNL     1     156.138 157.681 168.472  0.00  0.00    +0.000 A 
ATOM      8  C11 UNL     1     157.478 157.835 168.189  0.00  0.00    +0.000 A 
ATOM      9  C12 UNL     1     157.973 157.584 166.933  0.00  0.00    +0.000 A 
ATOM     10  C13 UNL     1     159.353 157.771 166.748  0.00  0.00    +0.000 A 
ATOM     11 CL1  UNL     1     153.962 157.734 170.060  0.00  0.00    +0.000 Cl
ENDROOT
BRANCH   1  16
ATOM     12 BR1  UNL     1     166.283 158.542 166.751  0.00  0.00    +0.000 Br
ATOM     13  C1  UNL     1     164.407 158.513 167.039  0.00  0.00    +0.000 A 
ATOM     14  C2  UNL     1     163.793 157.301 167.354  0.00  0.00    +0.000 A 
ATOM     15  C3  UNL     1     162.435 157.227 167.572  0.00  0.00    +0.000 A 
ATOM     16  C4  UNL     1     161.635 158.358 167.485  0.00  0.00    +0.000 A 
ATOM     17  C15 UNL     1     162.233 159.535 167.177  0.00  0.00    +0.000 A 
ATOM     18  C16 UNL     1     163.611 159.636 166.951  0.00  0.00    +0.000 A 
ENDBRANCH   1  16
BRANCH   9  19
ATOM     19  C14 UNL     1     157.149 157.153 165.843  0.00  0.00    +0.000 C 
ATOM     20  O1  UNL     1     156.614 156.066 165.633  0.00  0.00    +0.000 OA
BRANCH  19  21
ATOM     21  O2  UNL     1     156.885 158.104 164.823  0.00  0.00    +0.000 OA
ATOM     22  H7  UNL     1     156.040 158.664 164.818  0.00  0.00    +0.000 HD
ENDBRANCH  19  21
ENDBRANCH   9  19
TORSDOF 3
ENDMDL
MODEL 7
REMARK VINA RESULT:      -5.6      4.968      7.656
REMARK  Name = ./3D_structures\o47_MMV247764_3D.pdb
REMARK  3 active torsions:
REMARK  status: ('A' for Active; 'I' for Inactive)
REMARK    1  A    between atoms: C4_5  and  C5_6
REMARK    2  A    between atoms: C12_14  and  C14_16
REMARK    3  A    between atoms: C14_16  and  O2_18
REMARK                            x       y       z     vdW  Elec       q    Type
REMARK                         _______ _______ _______ _____ _____    ______ ____
ROOT
ATOM      1  C5  UNL     1     158.054 157.075 166.336  0.00  0.00    +0.000 A 
ATOM      2  N1  UNL     1     158.320 157.953 165.353  0.00  0.00    +0.000 NA
ATOM      3  C6  UNL     1     158.594 157.555 164.103  0.00  0.00    +0.000 A 
ATOM      4  C7  UNL     1     158.858 158.501 163.141  0.00  0.00    +0.000 A 
ATOM      5  C8  UNL     1     159.143 158.130 161.846  0.00  0.00    +0.000 A 
ATOM      6  C9  UNL     1     159.166 156.806 161.499  0.00  0.00    +0.000 A 
ATOM      7  C10 UNL     1     158.903 155.825 162.454  0.00  0.00    +0.000 A 
ATOM      8  C11 UNL     1     158.619 156.200 163.749  0.00  0.00    +0.000 A 
ATOM      9  C12 UNL     1     158.353 155.265 164.719  0.00  0.00    +0.000 A 
ATOM     10  C13 UNL     1     158.075 155.750 166.007  0.00  0.00    +0.000 A 
ATOM     11 CL1  UNL     1     159.522 156.269 159.870  0.00  0.00    +0.000 Cl
ENDROOT
BRANCH   1  16
ATOM     12 BR1  UNL     1     156.459 158.785 172.041  0.00  0.00    +0.000 Br
ATOM     13  C1  UNL     1     157.023 158.300 170.294  0.00  0.00    +0.000 A 
ATOM     14  C2  UNL     1     156.177 157.519 169.506  0.00  0.00    +0.000 A 
ATOM     15  C3  UNL     1     156.540 157.140 168.233  0.00  0.00    +0.000 A 
ATOM     16  C4  UNL     1     157.760 157.526 167.693  0.00  0.00    +0.000 A 
ATOM     17  C15 UNL     1     158.580 158.285 168.460  0.00  0.00    +0.000 A 
ATOM     18  C16 UNL     1     158.235 158.682 169.757  0.00  0.00    +0.000 A 
ENDBRANCH   1  16
BRANCH   9  19
ATOM     19  C14 UNL     1     158.353 153.855 164.461  0.00  0.00    +0.000 C 
ATOM     20  O1  UNL     1     159.242 153.020 164.607  0.00  0.00    +0.000 OA
BRANCH  19  21
ATOM     21  O2  UNL     1     157.149 153.297 163.954  0.00  0.00    +0.000 OA
ATOM     22  H7  UNL     1     157.151 152.601 163.217  0.00  0.00    +0.000 HD
ENDBRANCH  19  21
ENDBRANCH   9  19
TORSDOF 3
ENDMDL
MODEL 8
REMARK VINA RESULT:      -5.6      5.728      7.037
REMARK  Name = ./3D_structures\o47_MMV247764_3D.pdb
REMARK  3 active torsions:
REMARK  status: ('A' for Active; 'I' for Inactive)
REMARK    1  A    between atoms: C4_5  and  C5_6
REMARK    2  A    between atoms: C12_14  and  C14_16
REMARK    3  A    between atoms: C14_16  and  O2_18
REMARK                            x       y       z     vdW  Elec       q    Type
REMARK                         _______ _______ _______ _____ _____    ______ ____
ROOT
ATOM      1  C5  UNL     1     152.718 161.204 166.413  0.00  0.00    +0.000 A 
ATOM      2  N1  UNL     1     152.643 162.344 165.705  0.00  0.00    +0.000 NA
ATOM      3  C6  UNL     1     151.663 163.237 165.901  0.00  0.00    +0.000 A 
ATOM      4  C7  UNL     1     151.641 164.385 165.145  0.00  0.00    +0.000 A 
ATOM      5  C8  UNL     1     150.650 165.325 165.319  0.00  0.00    +0.000 A 
ATOM      6  C9  UNL     1     149.668 165.126 166.252  0.00  0.00    +0.000 A 
ATOM      7  C10 UNL     1     149.666 163.970 167.033  0.00  0.00    +0.000 A 
ATOM      8  C11 UNL     1     150.659 163.032 166.856  0.00  0.00    +0.000 A 
ATOM      9  C12 UNL     1     150.693 161.881 167.605  0.00  0.00    +0.000 A 
ATOM     10  C13 UNL     1     151.747 160.989 167.348  0.00  0.00    +0.000 A 
ATOM     11 CL1  UNL     1     148.380 166.282 166.522  0.00  0.00    +0.000 Cl
ENDROOT
BRANCH   1  16
ATOM     12 BR1  UNL     1     157.077 156.899 165.717  0.00  0.00    +0.000 Br
ATOM     13  C1  UNL     1     155.775 158.271 165.875  0.00  0.00    +0.000 A 
ATOM     14  C2  UNL     1     154.712 158.093 166.760  0.00  0.00    +0.000 A 
ATOM     15  C3  UNL     1     153.741 159.059 166.911  0.00  0.00    +0.000 A 
ATOM     16  C4  UNL     1     153.792 160.242 166.185  0.00  0.00    +0.000 A 
ATOM     17  C15 UNL     1     154.825 160.414 165.325  0.00  0.00    +0.000 A 
ATOM     18  C16 UNL     1     155.823 159.447 165.154  0.00  0.00    +0.000 A 
ENDBRANCH   1  16
BRANCH   9  19
ATOM     19  C14 UNL     1     149.715 161.576 168.607  0.00  0.00    +0.000 C 
ATOM     20  O1  UNL     1     148.624 161.018 168.510  0.00  0.00    +0.000 OA
BRANCH  19  21
ATOM     21  O2  UNL     1     150.017 161.968 169.938  0.00  0.00    +0.000 OA
ATOM     22  H7  UNL     1     150.712 161.483 170.494  0.00  0.00    +0.000 HD
ENDBRANCH  19  21
ENDBRANCH   9  19
TORSDOF 3
ENDMDL
MODEL 9
REMARK VINA RESULT:      -5.5      2.293      3.245
REMARK  Name = ./3D_structures\o47_MMV247764_3D.pdb
REMARK  3 active torsions:
REMARK  status: ('A' for Active; 'I' for Inactive)
REMARK    1  A    between atoms: C4_5  and  C5_6
REMARK    2  A    between atoms: C12_14  and  C14_16
REMARK    3  A    between atoms: C14_16  and  O2_18
REMARK                            x       y       z     vdW  Elec       q    Type
REMARK                         _______ _______ _______ _____ _____    ______ ____
ROOT
ATOM      1  C5  UNL     1     156.850 157.450 167.307  0.00  0.00    +0.000 A 
ATOM      2  N1  UNL     1     155.691 158.039 166.965  0.00  0.00    +0.000 NA
ATOM      3  C6  UNL     1     154.882 158.593 167.879  0.00  0.00    +0.000 A 
ATOM      4  C7  UNL     1     153.709 159.181 167.467  0.00  0.00    +0.000 A 
ATOM      5  C8  UNL     1     152.852 159.759 168.376  0.00  0.00    +0.000 A 
ATOM      6  C9  UNL     1     153.160 159.755 169.710  0.00  0.00    +0.000 A 
ATOM      7  C10 UNL     1     154.342 159.165 170.156  0.00  0.00    +0.000 A 
ATOM      8  C11 UNL     1     155.197 158.587 169.243  0.00  0.00    +0.000 A 
ATOM      9  C12 UNL     1     156.371 157.997 169.642  0.00  0.00    +0.000 A 
ATOM     10  C13 UNL     1     157.172 157.437 168.634  0.00  0.00    +0.000 A 
ATOM     11 CL1  UNL     1     152.113 160.473 170.918  0.00  0.00    +0.000 Cl
ENDROOT
BRANCH   1  16
ATOM     12 BR1  UNL     1     160.212 154.699 162.931  0.00  0.00    +0.000 Br
ATOM     13  C1  UNL     1     159.245 155.591 164.299  0.00  0.00    +0.000 A 
ATOM     14  C2  UNL     1     157.905 155.261 164.502  0.00  0.00    +0.000 A 
ATOM     15  C3  UNL     1     157.159 155.880 165.481  0.00  0.00    +0.000 A 
ATOM     16  C4  UNL     1     157.720 156.852 166.299  0.00  0.00    +0.000 A 
ATOM     17  C15 UNL     1     159.022 157.172 166.100  0.00  0.00    +0.000 A 
ATOM     18  C16 UNL     1     159.800 156.558 165.112  0.00  0.00    +0.000 A 
ENDBRANCH   1  16
BRANCH   9  19
ATOM     19  C14 UNL     1     156.786 157.938 171.012  0.00  0.00    +0.000 C 
ATOM     20  O1  UNL     1     157.520 158.688 171.654  0.00  0.00    +0.000 OA
BRANCH  19  21
ATOM     21  O2  UNL     1     156.292 156.855 171.786  0.00  0.00    +0.000 OA
ATOM     22  H7  UNL     1     155.786 157.002 172.652  0.00  0.00    +0.000 HD
ENDBRANCH  19  21
ENDBRANCH   9  19
TORSDOF 3
ENDMDL
