MODEL 1
REMARK VINA RESULT:      -7.4      0.000      0.000
REMARK  Name = ./3D_structures\o49_MMV638198_3D.pdb
REMARK  10 active torsions:
REMARK  status: ('A' for Active; 'I' for Inactive)
REMARK    1  A    between atoms: C1_2  and  O2_3
REMARK    2  A    between atoms: C1_2  and  C2_4
REMARK    3  A    between atoms: C5_7  and  C22_25
REMARK    4  A    between atoms: C6_8  and  C21_24
REMARK    5  A    between atoms: C8_10  and  C18_21
REMARK    6  A    between atoms: C10_12  and  C14_17
REMARK    7  A    between atoms: C10_12  and  C15_18
REMARK    8  A    between atoms: C11_13  and  O3_14
REMARK    9  A    between atoms: C25_28  and  C26_29
REMARK   10  A    between atoms: C26_29  and  C28_31
REMARK                            x       y       z     vdW  Elec       q    Type
REMARK                         _______ _______ _______ _____ _____    ______ ____
ROOT
ATOM      1  C2  UNL     1     156.097 160.051 171.738  0.00  0.00    +0.000 C 
ATOM      2  C3  UNL     1     157.266 160.753 171.034  0.00  0.00    +0.000 C 
ATOM      3  C4  UNL     1     157.506 160.278 169.682  0.00  0.00    +0.000 C 
ATOM      4  C5  UNL     1     157.442 158.753 169.602  0.00  0.00    +0.000 C 
ATOM      5  C6  UNL     1     157.460 158.408 168.134  0.00  0.00    +0.000 C 
ATOM      6  C7  UNL     1     158.859 158.612 167.643  0.00  0.00    +0.000 C 
ATOM      7  C8  UNL     1     159.155 158.081 166.282  0.00  0.00    +0.000 C 
ATOM      8  C9  UNL     1     158.600 156.705 166.104  0.00  0.00    +0.000 C 
ATOM      9  C10 UNL     1     158.849 156.132 164.731  0.00  0.00    +0.000 C 
ATOM     10  C11 UNL     1     160.276 156.235 164.309  0.00  0.00    +0.000 C 
ATOM     11  C12 UNL     1     161.096 157.299 164.901  0.00  0.00    +0.000 C 
ATOM     12  C13 UNL     1     160.684 157.850 166.220  0.00  0.00    +0.000 C 
ATOM     13  C14 UNL     1     158.561 154.624 164.902  0.00  0.00    +0.000 C 
ATOM     14  C15 UNL     1     157.879 156.617 163.696  0.00  0.00    +0.000 C 
ATOM     15  C16 UNL     1     157.197 156.495 166.562  0.00  0.00    +0.000 C 
ATOM     16  C17 UNL     1     157.021 156.965 167.980  0.00  0.00    +0.000 C 
ATOM     17  C18 UNL     1     158.904 159.064 165.202  0.00  0.00    +0.000 C 
ATOM     18  C19 UNL     1     159.263 160.022 167.870  0.00  0.00    +0.000 C 
ATOM     19  C20 UNL     1     158.913 160.619 169.184  0.00  0.00    +0.000 C 
ATOM     20  C21 UNL     1     156.448 159.230 167.378  0.00  0.00    +0.000 C 
ATOM     21  C22 UNL     1     158.569 158.169 170.396  0.00  0.00    +0.000 C 
ATOM     22  C23 UNL     1     156.194 158.176 170.223  0.00  0.00    +0.000 C 
ATOM     23  C24 UNL     1     156.096 158.579 171.682  0.00  0.00    +0.000 C 
ATOM     24  C25 UNL     1     156.775 162.137 171.318  0.00  0.00    +0.000 C 
ATOM     25  C29 UNL     1     156.853 161.994 172.886  0.00  0.00    +0.000 C 
ATOM     26  C30 UNL     1     156.336 160.597 173.150  0.00  0.00    +0.000 C 
ENDROOT
BRANCH  24  27
ATOM     27  C26 UNL     1     157.485 163.307 170.884  0.00  0.00    +0.000 C 
ATOM     28  C27 UNL     1     157.053 164.085 169.924  0.00  0.00    +0.000 C 
ATOM     29  C28 UNL     1     158.830 163.632 171.436  0.00  0.00    +0.000 C 
ENDBRANCH  24  27
BRANCH   1  31
ATOM     30  O1  UNL     1     153.830 160.652 172.166  0.00  0.00    +0.000 OA
ATOM     31  C1  UNL     1     154.770 160.582 171.334  0.00  0.00    +0.000 C 
BRANCH  31  32
ATOM     32  O2  UNL     1     154.457 161.029 170.060  0.00  0.00    +0.000 OA
ATOM     33  H1  UNL     1     154.005 160.438 169.360  0.00  0.00    +0.000 HD
ENDBRANCH  31  32
ENDBRANCH   1  31
BRANCH  10  34
ATOM     34  O3  UNL     1     160.262 156.430 162.904  0.00  0.00    +0.000 OA
ATOM     35  H7  UNL     1     159.691 155.732 162.465  0.00  0.00    +0.000 HD
ENDBRANCH  10  34
TORSDOF 4
ENDMDL
MODEL 2
REMARK VINA RESULT:      -7.1      4.241      8.555
REMARK  Name = ./3D_structures\o49_MMV638198_3D.pdb
REMARK  10 active torsions:
REMARK  status: ('A' for Active; 'I' for Inactive)
REMARK    1  A    between atoms: C1_2  and  O2_3
REMARK    2  A    between atoms: C1_2  and  C2_4
REMARK    3  A    between atoms: C5_7  and  C22_25
REMARK    4  A    between atoms: C6_8  and  C21_24
REMARK    5  A    between atoms: C8_10  and  C18_21
REMARK    6  A    between atoms: C10_12  and  C14_17
REMARK    7  A    between atoms: C10_12  and  C15_18
REMARK    8  A    between atoms: C11_13  and  O3_14
REMARK    9  A    between atoms: C25_28  and  C26_29
REMARK   10  A    between atoms: C26_29  and  C28_31
REMARK                            x       y       z     vdW  Elec       q    Type
REMARK                         _______ _______ _______ _____ _____    ______ ____
ROOT
ATOM      1  C2  UNL     1     155.918 158.839 166.494  0.00  0.00    +0.000 C 
ATOM      2  C3  UNL     1     156.075 159.463 167.887  0.00  0.00    +0.000 C 
ATOM      3  C4  UNL     1     154.851 160.051 168.406  0.00  0.00    +0.000 C 
ATOM      4  C5  UNL     1     154.124 160.869 167.339  0.00  0.00    +0.000 C 
ATOM      5  C6  UNL     1     152.775 161.212 167.919  0.00  0.00    +0.000 C 
ATOM      6  C7  UNL     1     152.986 162.287 168.939  0.00  0.00    +0.000 C 
ATOM      7  C8  UNL     1     151.753 162.953 169.447  0.00  0.00    +0.000 C 
ATOM      8  C9  UNL     1     150.821 163.293 168.329  0.00  0.00    +0.000 C 
ATOM      9  C10 UNL     1     149.543 163.946 168.794  0.00  0.00    +0.000 C 
ATOM     10  C11 UNL     1     149.779 165.095 169.715  0.00  0.00    +0.000 C 
ATOM     11  C12 UNL     1     151.023 165.111 170.494  0.00  0.00    +0.000 C 
ATOM     12  C13 UNL     1     152.186 164.342 169.974  0.00  0.00    +0.000 C 
ATOM     13  C14 UNL     1     148.945 164.547 167.503  0.00  0.00    +0.000 C 
ATOM     14  C15 UNL     1     148.522 162.970 169.299  0.00  0.00    +0.000 C 
ATOM     15  C16 UNL     1     150.579 162.221 167.323  0.00  0.00    +0.000 C 
ATOM     16  C17 UNL     1     151.879 161.682 166.791  0.00  0.00    +0.000 C 
ATOM     17  C18 UNL     1     151.177 162.288 170.639  0.00  0.00    +0.000 C 
ATOM     18  C19 UNL     1     153.915 161.799 169.988  0.00  0.00    +0.000 C 
ATOM     19  C20 UNL     1     155.117 161.056 169.530  0.00  0.00    +0.000 C 
ATOM     20  C21 UNL     1     152.110 159.985 168.489  0.00  0.00    +0.000 C 
ATOM     21  C22 UNL     1     154.964 162.051 166.966  0.00  0.00    +0.000 C 
ATOM     22  C23 UNL     1     153.922 160.116 166.047  0.00  0.00    +0.000 C 
ATOM     23  C24 UNL     1     155.257 159.676 165.478  0.00  0.00    +0.000 C 
ATOM     24  C25 UNL     1     156.701 158.251 168.502  0.00  0.00    +0.000 C 
ATOM     25  C29 UNL     1     157.965 158.254 167.560  0.00  0.00    +0.000 C 
ATOM     26  C30 UNL     1     157.403 158.598 166.198  0.00  0.00    +0.000 C 
ENDROOT
BRANCH  24  27
ATOM     27  C26 UNL     1     157.101 158.210 169.881  0.00  0.00    +0.000 C 
ATOM     28  C27 UNL     1     158.267 158.634 170.295  0.00  0.00    +0.000 C 
ATOM     29  C28 UNL     1     156.234 157.564 170.906  0.00  0.00    +0.000 C 
ENDBRANCH  24  27
BRANCH   1  31
ATOM     30  O1  UNL     1     154.463 157.190 167.414  0.00  0.00    +0.000 OA
ATOM     31  C1  UNL     1     155.303 157.487 166.527  0.00  0.00    +0.000 C 
BRANCH  31  32
ATOM     32  O2  UNL     1     155.586 156.473 165.627  0.00  0.00    +0.000 OA
ATOM     33  H1  UNL     1     154.997 155.646 165.519  0.00  0.00    +0.000 HD
ENDBRANCH  31  32
ENDBRANCH   1  31
BRANCH  10  34
ATOM     34  O3  UNL     1     148.695 165.100 170.631  0.00  0.00    +0.000 OA
ATOM     35  H7  UNL     1     147.853 164.813 170.168  0.00  0.00    +0.000 HD
ENDBRANCH  10  34
TORSDOF 4
ENDMDL
MODEL 3
REMARK VINA RESULT:      -7.1      4.138      7.984
REMARK  Name = ./3D_structures\o49_MMV638198_3D.pdb
REMARK  10 active torsions:
REMARK  status: ('A' for Active; 'I' for Inactive)
REMARK    1  A    between atoms: C1_2  and  O2_3
REMARK    2  A    between atoms: C1_2  and  C2_4
REMARK    3  A    between atoms: C5_7  and  C22_25
REMARK    4  A    between atoms: C6_8  and  C21_24
REMARK    5  A    between atoms: C8_10  and  C18_21
REMARK    6  A    between atoms: C10_12  and  C14_17
REMARK    7  A    between atoms: C10_12  and  C15_18
REMARK    8  A    between atoms: C11_13  and  O3_14
REMARK    9  A    between atoms: C25_28  and  C26_29
REMARK   10  A    between atoms: C26_29  and  C28_31
REMARK                            x       y       z     vdW  Elec       q    Type
REMARK                         _______ _______ _______ _____ _____    ______ ____
ROOT
ATOM      1  C2  UNL     1     156.856 158.402 165.996  0.00  0.00    +0.000 C 
ATOM      2  C3  UNL     1     156.823 159.153 167.335  0.00  0.00    +0.000 C 
ATOM      3  C4  UNL     1     155.705 160.072 167.463  0.00  0.00    +0.000 C 
ATOM      4  C5  UNL     1     155.498 160.887 166.187  0.00  0.00    +0.000 C 
ATOM      5  C6  UNL     1     154.185 161.609 166.357  0.00  0.00    +0.000 C 
ATOM      6  C7  UNL     1     154.411 162.730 167.321  0.00  0.00    +0.000 C 
ATOM      7  C8  UNL     1     153.307 163.726 167.432  0.00  0.00    +0.000 C 
ATOM      8  C9  UNL     1     152.797 164.122 166.084  0.00  0.00    +0.000 C 
ATOM      9  C10 UNL     1     151.658 165.109 166.141  0.00  0.00    +0.000 C 
ATOM     10  C11 UNL     1     151.951 166.284 167.013  0.00  0.00    +0.000 C 
ATOM     11  C12 UNL     1     152.928 166.114 168.095  0.00  0.00    +0.000 C 
ATOM     12  C13 UNL     1     153.942 165.034 167.962  0.00  0.00    +0.000 C 
ATOM     13  C14 UNL     1     151.571 165.657 164.700  0.00  0.00    +0.000 C 
ATOM     14  C15 UNL     1     150.329 164.473 166.416  0.00  0.00    +0.000 C 
ATOM     15  C16 UNL     1     152.540 163.012 165.123  0.00  0.00    +0.000 C 
ATOM     16  C17 UNL     1     153.745 162.120 165.000  0.00  0.00    +0.000 C 
ATOM     17  C18 UNL     1     152.305 163.377 168.465  0.00  0.00    +0.000 C 
ATOM     18  C19 UNL     1     154.897 162.184 168.613  0.00  0.00    +0.000 C 
ATOM     19  C20 UNL     1     155.939 161.127 168.547  0.00  0.00    +0.000 C 
ATOM     20  C21 UNL     1     153.106 160.656 166.808  0.00  0.00    +0.000 C 
ATOM     21  C22 UNL     1     156.680 161.782 165.976  0.00  0.00    +0.000 C 
ATOM     22  C23 UNL     1     155.430 160.038 164.942  0.00  0.00    +0.000 C 
ATOM     23  C24 UNL     1     156.704 159.228 164.785  0.00  0.00    +0.000 C 
ATOM     24  C25 UNL     1     156.944 157.921 168.175  0.00  0.00    +0.000 C 
ATOM     25  C29 UNL     1     158.356 157.505 167.612  0.00  0.00    +0.000 C 
ATOM     26  C30 UNL     1     158.254 157.787 166.128  0.00  0.00    +0.000 C 
ENDROOT
BRANCH  24  27
ATOM     27  C26 UNL     1     156.970 157.971 169.610  0.00  0.00    +0.000 C 
ATOM     28  C27 UNL     1     155.954 157.611 170.352  0.00  0.00    +0.000 C 
ATOM     29  C28 UNL     1     158.134 158.557 170.332  0.00  0.00    +0.000 C 
ENDBRANCH  24  27
BRANCH   1  31
ATOM     30  O1  UNL     1     154.816 157.299 166.546  0.00  0.00    +0.000 OA
ATOM     31  C1  UNL     1     155.923 157.248 165.952  0.00  0.00    +0.000 C 
BRANCH  31  32
ATOM     32  O2  UNL     1     156.175 156.059 165.287  0.00  0.00    +0.000 OA
ATOM     33  H1  UNL     1     157.119 155.718 165.096  0.00  0.00    +0.000 HD
ENDBRANCH  31  32
ENDBRANCH   1  31
BRANCH  10  34
ATOM     34  O3  UNL     1     150.716 166.662 167.600  0.00  0.00    +0.000 OA
ATOM     35  H7  UNL     1     150.788 167.586 167.984  0.00  0.00    +0.000 HD
ENDBRANCH  10  34
TORSDOF 4
ENDMDL
MODEL 4
REMARK VINA RESULT:      -7.0      4.726      8.592
REMARK  Name = ./3D_structures\o49_MMV638198_3D.pdb
REMARK  10 active torsions:
REMARK  status: ('A' for Active; 'I' for Inactive)
REMARK    1  A    between atoms: C1_2  and  O2_3
REMARK    2  A    between atoms: C1_2  and  C2_4
REMARK    3  A    between atoms: C5_7  and  C22_25
REMARK    4  A    between atoms: C6_8  and  C21_24
REMARK    5  A    between atoms: C8_10  and  C18_21
REMARK    6  A    between atoms: C10_12  and  C14_17
REMARK    7  A    between atoms: C10_12  and  C15_18
REMARK    8  A    between atoms: C11_13  and  O3_14
REMARK    9  A    between atoms: C25_28  and  C26_29
REMARK   10  A    between atoms: C26_29  and  C28_31
REMARK                            x       y       z     vdW  Elec       q    Type
REMARK                         _______ _______ _______ _____ _____    ______ ____
ROOT
ATOM      1  C2  UNL     1     155.183 160.519 172.253  0.00  0.00    +0.000 C 
ATOM      2  C3  UNL     1     154.669 159.575 171.157  0.00  0.00    +0.000 C 
ATOM      3  C4  UNL     1     153.676 160.178 170.285  0.00  0.00    +0.000 C 
ATOM      4  C5  UNL     1     152.641 160.976 171.077  0.00  0.00    +0.000 C 
ATOM      5  C6  UNL     1     151.829 161.739 170.061  0.00  0.00    +0.000 C 
ATOM      6  C7  UNL     1     150.914 160.761 169.393  0.00  0.00    +0.000 C 
ATOM      7  C8  UNL     1     149.843 161.350 168.538  0.00  0.00    +0.000 C 
ATOM      8  C9  UNL     1     149.178 162.501 169.220  0.00  0.00    +0.000 C 
ATOM      9  C10 UNL     1     148.103 163.152 168.384  0.00  0.00    +0.000 C 
ATOM     10  C11 UNL     1     147.127 162.171 167.827  0.00  0.00    +0.000 C 
ATOM     11  C12 UNL     1     147.575 160.787 167.632  0.00  0.00    +0.000 C 
ATOM     12  C13 UNL     1     148.715 160.296 168.452  0.00  0.00    +0.000 C 
ATOM     13  C14 UNL     1     147.316 164.011 169.397  0.00  0.00    +0.000 C 
ATOM     14  C15 UNL     1     148.638 164.113 167.365  0.00  0.00    +0.000 C 
ATOM     15  C16 UNL     1     150.079 163.498 169.864  0.00  0.00    +0.000 C 
ATOM     16  C17 UNL     1     151.055 162.821 170.787  0.00  0.00    +0.000 C 
ATOM     17  C18 UNL     1     150.257 161.538 167.129  0.00  0.00    +0.000 C 
ATOM     18  C19 UNL     1     151.715 159.691 168.749  0.00  0.00    +0.000 C 
ATOM     19  C20 UNL     1     152.846 159.133 169.535  0.00  0.00    +0.000 C 
ATOM     20  C21 UNL     1     152.729 162.458 169.088  0.00  0.00    +0.000 C 
ATOM     21  C22 UNL     1     151.847 160.040 171.936  0.00  0.00    +0.000 C 
ATOM     22  C23 UNL     1     153.258 161.957 172.043  0.00  0.00    +0.000 C 
ATOM     23  C24 UNL     1     154.154 161.233 173.030  0.00  0.00    +0.000 C 
ATOM     24  C25 UNL     1     156.030 159.190 170.670  0.00  0.00    +0.000 C 
ATOM     25  C29 UNL     1     156.486 158.539 172.032  0.00  0.00    +0.000 C 
ATOM     26  C30 UNL     1     155.951 159.485 173.085  0.00  0.00    +0.000 C 
ENDROOT
BRANCH  24  27
ATOM     27  C26 UNL     1     156.224 158.271 169.584  0.00  0.00    +0.000 C 
ATOM     28  C27 UNL     1     155.988 156.989 169.687  0.00  0.00    +0.000 C 
ATOM     29  C28 UNL     1     156.825 158.727 168.299  0.00  0.00    +0.000 C 
ENDBRANCH  24  27
BRANCH   1  31
ATOM     30  O1  UNL     1     157.139 161.854 172.526  0.00  0.00    +0.000 OA
ATOM     31  C1  UNL     1     156.213 161.471 171.766  0.00  0.00    +0.000 C 
BRANCH  31  32
ATOM     32  O2  UNL     1     156.249 162.004 170.487  0.00  0.00    +0.000 OA
ATOM     33  H1  UNL     1     155.740 162.849 170.224  0.00  0.00    +0.000 HD
ENDBRANCH  31  32
ENDBRANCH   1  31
BRANCH  10  34
ATOM     34  O3  UNL     1     146.730 162.679 166.563  0.00  0.00    +0.000 OA
ATOM     35  H7  UNL     1     145.891 163.221 166.659  0.00  0.00    +0.000 HD
ENDBRANCH  10  34
TORSDOF 4
ENDMDL
MODEL 5
REMARK VINA RESULT:      -7.0      4.549      6.910
REMARK  Name = ./3D_structures\o49_MMV638198_3D.pdb
REMARK  10 active torsions:
REMARK  status: ('A' for Active; 'I' for Inactive)
REMARK    1  A    between atoms: C1_2  and  O2_3
REMARK    2  A    between atoms: C1_2  and  C2_4
REMARK    3  A    between atoms: C5_7  and  C22_25
REMARK    4  A    between atoms: C6_8  and  C21_24
REMARK    5  A    between atoms: C8_10  and  C18_21
REMARK    6  A    between atoms: C10_12  and  C14_17
REMARK    7  A    between atoms: C10_12  and  C15_18
REMARK    8  A    between atoms: C11_13  and  O3_14
REMARK    9  A    between atoms: C25_28  and  C26_29
REMARK   10  A    between atoms: C26_29  and  C28_31
REMARK                            x       y       z     vdW  Elec       q    Type
REMARK                         _______ _______ _______ _____ _____    ______ ____
ROOT
ATOM      1  C2  UNL     1     149.415 162.894 168.803  0.00  0.00    +0.000 C 
ATOM      2  C3  UNL     1     150.348 163.335 169.939  0.00  0.00    +0.000 C 
ATOM      3  C4  UNL     1     151.683 162.767 169.855  0.00  0.00    +0.000 C 
ATOM      4  C5  UNL     1     151.639 161.279 169.510  0.00  0.00    +0.000 C 
ATOM      5  C6  UNL     1     153.061 160.873 169.214  0.00  0.00    +0.000 C 
ATOM      6  C7  UNL     1     153.785 160.793 170.521  0.00  0.00    +0.000 C 
ATOM      7  C8  UNL     1     155.134 160.158 170.480  0.00  0.00    +0.000 C 
ATOM      8  C9  UNL     1     155.118 158.903 169.669  0.00  0.00    +0.000 C 
ATOM      9  C10 UNL     1     156.467 158.236 169.572  0.00  0.00    +0.000 C 
ATOM     10  C11 UNL     1     157.121 158.053 170.901  0.00  0.00    +0.000 C 
ATOM     11  C12 UNL     1     156.749 158.970 171.985  0.00  0.00    +0.000 C 
ATOM     12  C13 UNL     1     155.425 159.644 171.910  0.00  0.00    +0.000 C 
ATOM     13  C14 UNL     1     156.141 156.817 169.057  0.00  0.00    +0.000 C 
ATOM     14  C15 UNL     1     157.365 158.848 168.540  0.00  0.00    +0.000 C 
ATOM     15  C16 UNL     1     154.425 158.978 168.351  0.00  0.00    +0.000 C 
ATOM     16  C17 UNL     1     153.036 159.533 168.507  0.00  0.00    +0.000 C 
ATOM     17  C18 UNL     1     156.227 161.123 170.224  0.00  0.00    +0.000 C 
ATOM     18  C19 UNL     1     153.731 162.111 171.200  0.00  0.00    +0.000 C 
ATOM     19  C20 UNL     1     152.425 162.818 171.192  0.00  0.00    +0.000 C 
ATOM     20  C21 UNL     1     153.702 161.837 168.247  0.00  0.00    +0.000 C 
ATOM     21  C22 UNL     1     150.997 160.529 170.636  0.00  0.00    +0.000 C 
ATOM     22  C23 UNL     1     150.784 160.971 168.305  0.00  0.00    +0.000 C 
ATOM     23  C24 UNL     1     149.361 161.447 168.533  0.00  0.00    +0.000 C 
ATOM     24  C25 UNL     1     150.091 164.798 169.756  0.00  0.00    +0.000 C 
ATOM     25  C29 UNL     1     148.550 164.710 170.076  0.00  0.00    +0.000 C 
ATOM     26  C30 UNL     1     148.104 163.445 169.374  0.00  0.00    +0.000 C 
ENDROOT
BRANCH  24  27
ATOM     27  C26 UNL     1     150.719 165.795 170.576  0.00  0.00    +0.000 C 
ATOM     28  C27 UNL     1     150.321 166.070 171.791  0.00  0.00    +0.000 C 
ATOM     29  C28 UNL     1     151.800 166.662 170.028  0.00  0.00    +0.000 C 
ENDBRANCH  24  27
BRANCH   1  31
ATOM     30  O1  UNL     1     148.662 164.044 166.855  0.00  0.00    +0.000 OA
ATOM     31  C1  UNL     1     149.637 163.646 167.542  0.00  0.00    +0.000 C 
BRANCH  31  32
ATOM     32  O2  UNL     1     150.883 163.962 167.025  0.00  0.00    +0.000 OA
ATOM     33  H1  UNL     1     151.052 164.097 166.027  0.00  0.00    +0.000 HD
ENDBRANCH  31  32
ENDBRANCH   1  31
BRANCH  10  34
ATOM     34  O3  UNL     1     158.516 158.187 170.680  0.00  0.00    +0.000 OA
ATOM     35  H7  UNL     1     159.010 157.449 171.147  0.00  0.00    +0.000 HD
ENDBRANCH  10  34
TORSDOF 4
ENDMDL
MODEL 6
REMARK VINA RESULT:      -6.9      2.317      3.359
REMARK  Name = ./3D_structures\o49_MMV638198_3D.pdb
REMARK  10 active torsions:
REMARK  status: ('A' for Active; 'I' for Inactive)
REMARK    1  A    between atoms: C1_2  and  O2_3
REMARK    2  A    between atoms: C1_2  and  C2_4
REMARK    3  A    between atoms: C5_7  and  C22_25
REMARK    4  A    between atoms: C6_8  and  C21_24
REMARK    5  A    between atoms: C8_10  and  C18_21
REMARK    6  A    between atoms: C10_12  and  C14_17
REMARK    7  A    between atoms: C10_12  and  C15_18
REMARK    8  A    between atoms: C11_13  and  O3_14
REMARK    9  A    between atoms: C25_28  and  C26_29
REMARK   10  A    between atoms: C26_29  and  C28_31
REMARK                            x       y       z     vdW  Elec       q    Type
REMARK                         _______ _______ _______ _____ _____    ______ ____
ROOT
ATOM      1  C2  UNL     1     152.082 159.191 170.462  0.00  0.00    +0.000 C 
ATOM      2  C3  UNL     1     153.338 159.958 170.901  0.00  0.00    +0.000 C 
ATOM      3  C4  UNL     1     154.407 159.943 169.917  0.00  0.00    +0.000 C 
ATOM      4  C5  UNL     1     154.599 158.551 169.316  0.00  0.00    +0.000 C 
ATOM      5  C6  UNL     1     155.548 158.720 168.157  0.00  0.00    +0.000 C 
ATOM      6  C7  UNL     1     156.917 158.924 168.724  0.00  0.00    +0.000 C 
ATOM      7  C8  UNL     1     158.043 158.853 167.750  0.00  0.00    +0.000 C 
ATOM      8  C9  UNL     1     157.890 157.687 166.828  0.00  0.00    +0.000 C 
ATOM      9  C10 UNL     1     158.992 157.586 165.803  0.00  0.00    +0.000 C 
ATOM     10  C11 UNL     1     160.354 157.669 166.403  0.00  0.00    +0.000 C 
ATOM     11  C12 UNL     1     160.503 158.375 167.682  0.00  0.00    +0.000 C 
ATOM     12  C13 UNL     1     159.310 158.492 168.562  0.00  0.00    +0.000 C 
ATOM     13  C14 UNL     1     158.853 156.150 165.252  0.00  0.00    +0.000 C 
ATOM     14  C15 UNL     1     158.797 158.494 164.625  0.00  0.00    +0.000 C 
ATOM     15  C16 UNL     1     156.538 157.489 166.233  0.00  0.00    +0.000 C 
ATOM     16  C17 UNL     1     155.480 157.470 167.301  0.00  0.00    +0.000 C 
ATOM     17  C18 UNL     1     158.376 160.163 167.144  0.00  0.00    +0.000 C 
ATOM     18  C19 UNL     1     156.918 160.122 169.600  0.00  0.00    +0.000 C 
ATOM     19  C20 UNL     1     155.769 160.276 170.530  0.00  0.00    +0.000 C 
ATOM     20  C21 UNL     1     155.108 159.853 167.266  0.00  0.00    +0.000 C 
ATOM     21  C22 UNL     1     155.076 157.614 170.383  0.00  0.00    +0.000 C 
ATOM     22  C23 UNL     1     153.316 157.938 168.811  0.00  0.00    +0.000 C 
ATOM     23  C24 UNL     1     152.302 157.834 169.935  0.00  0.00    +0.000 C 
ATOM     24  C25 UNL     1     152.604 161.210 171.263  0.00  0.00    +0.000 C 
ATOM     25  C29 UNL     1     151.732 160.540 172.392  0.00  0.00    +0.000 C 
ATOM     26  C30 UNL     1     151.344 159.200 171.805  0.00  0.00    +0.000 C 
ENDROOT
BRANCH  24  27
ATOM     27  C26 UNL     1     153.276 162.374 171.770  0.00  0.00    +0.000 C 
ATOM     28  C27 UNL     1     153.463 163.454 171.056  0.00  0.00    +0.000 C 
ATOM     29  C28 UNL     1     153.906 162.362 173.120  0.00  0.00    +0.000 C 
ENDBRANCH  24  27
BRANCH   1  31
ATOM     30  O1  UNL     1     149.967 159.918 169.637  0.00  0.00    +0.000 OA
ATOM     31  C1  UNL     1     151.219 159.969 169.537  0.00  0.00    +0.000 C 
BRANCH  31  32
ATOM     32  O2  UNL     1     151.691 160.785 168.521  0.00  0.00    +0.000 OA
ATOM     33  H1  UNL     1     151.075 161.323 167.909  0.00  0.00    +0.000 HD
ENDBRANCH  31  32
ENDBRANCH   1  31
BRANCH  10  34
ATOM     34  O3  UNL     1     161.172 158.326 165.448  0.00  0.00    +0.000 OA
ATOM     35  H7  UNL     1     161.672 159.078 165.885  0.00  0.00    +0.000 HD
ENDBRANCH  10  34
TORSDOF 4
ENDMDL
MODEL 7
REMARK VINA RESULT:      -6.8      2.487      7.579
REMARK  Name = ./3D_structures\o49_MMV638198_3D.pdb
REMARK  10 active torsions:
REMARK  status: ('A' for Active; 'I' for Inactive)
REMARK    1  A    between atoms: C1_2  and  O2_3
REMARK    2  A    between atoms: C1_2  and  C2_4
REMARK    3  A    between atoms: C5_7  and  C22_25
REMARK    4  A    between atoms: C6_8  and  C21_24
REMARK    5  A    between atoms: C8_10  and  C18_21
REMARK    6  A    between atoms: C10_12  and  C14_17
REMARK    7  A    between atoms: C10_12  and  C15_18
REMARK    8  A    between atoms: C11_13  and  O3_14
REMARK    9  A    between atoms: C25_28  and  C26_29
REMARK   10  A    between atoms: C26_29  and  C28_31
REMARK                            x       y       z     vdW  Elec       q    Type
REMARK                         _______ _______ _______ _____ _____    ______ ____
ROOT
ATOM      1  C2  UNL     1     159.758 158.594 167.009  0.00  0.00    +0.000 C 
ATOM      2  C3  UNL     1     158.512 157.998 166.339  0.00  0.00    +0.000 C 
ATOM      3  C4  UNL     1     157.261 158.526 166.857  0.00  0.00    +0.000 C 
ATOM      4  C5  UNL     1     157.275 158.610 168.383  0.00  0.00    +0.000 C 
ATOM      5  C6  UNL     1     156.042 159.387 168.773  0.00  0.00    +0.000 C 
ATOM      6  C7  UNL     1     154.866 158.479 168.596  0.00  0.00    +0.000 C 
ATOM      7  C8  UNL     1     153.578 158.963 169.171  0.00  0.00    +0.000 C 
ATOM      8  C9  UNL     1     153.772 159.514 170.546  0.00  0.00    +0.000 C 
ATOM      9  C10 UNL     1     152.501 160.044 171.163  0.00  0.00    +0.000 C 
ATOM     10  C11 UNL     1     151.370 159.074 171.086  0.00  0.00    +0.000 C 
ATOM     11  C12 UNL     1     151.391 158.073 170.012  0.00  0.00    +0.000 C 
ATOM     12  C13 UNL     1     152.705 157.710 169.417  0.00  0.00    +0.000 C 
ATOM     13  C14 UNL     1     152.846 160.180 172.661  0.00  0.00    +0.000 C 
ATOM     14  C15 UNL     1     152.142 161.424 170.700  0.00  0.00    +0.000 C 
ATOM     15  C16 UNL     1     154.923 160.443 170.729  0.00  0.00    +0.000 C 
ATOM     16  C17 UNL     1     156.195 159.827 170.215  0.00  0.00    +0.000 C 
ATOM     17  C18 UNL     1     152.778 159.768 168.218  0.00  0.00    +0.000 C 
ATOM     18  C19 UNL     1     154.795 158.029 167.184  0.00  0.00    +0.000 C 
ATOM     19  C20 UNL     1     156.071 157.616 166.544  0.00  0.00    +0.000 C 
ATOM     20  C21 UNL     1     155.932 160.654 167.965  0.00  0.00    +0.000 C 
ATOM     21  C22 UNL     1     157.349 157.227 168.953  0.00  0.00    +0.000 C 
ATOM     22  C23 UNL     1     158.490 159.318 168.929  0.00  0.00    +0.000 C 
ATOM     23  C24 UNL     1     159.757 158.612 168.482  0.00  0.00    +0.000 C 
ATOM     24  C25 UNL     1     158.975 158.270 164.943  0.00  0.00    +0.000 C 
ATOM     25  C29 UNL     1     160.254 157.354 165.039  0.00  0.00    +0.000 C 
ATOM     26  C30 UNL     1     160.799 157.633 166.423  0.00  0.00    +0.000 C 
ENDROOT
BRANCH  24  27
ATOM     27  C26 UNL     1     158.190 157.918 163.793  0.00  0.00    +0.000 C 
ATOM     28  C27 UNL     1     157.946 156.679 163.451  0.00  0.00    +0.000 C 
ATOM     29  C28 UNL     1     157.705 158.966 162.851  0.00  0.00    +0.000 C 
ENDBRANCH  24  27
BRANCH   1  31
ATOM     30  O1  UNL     1     161.328 160.277 166.386  0.00  0.00    +0.000 OA
ATOM     31  C1  UNL     1     160.122 159.933 166.478  0.00  0.00    +0.000 C 
BRANCH  31  32
ATOM     32  O2  UNL     1     159.208 160.884 166.055  0.00  0.00    +0.000 OA
ATOM     33  H1  UNL     1     158.350 160.647 165.555  0.00  0.00    +0.000 HD
ENDBRANCH  31  32
ENDBRANCH   1  31
BRANCH  10  34
ATOM     34  O3  UNL     1     150.191 159.848 170.932  0.00  0.00    +0.000 OA
ATOM     35  H7  UNL     1     149.867 159.797 169.984  0.00  0.00    +0.000 HD
ENDBRANCH  10  34
TORSDOF 4
ENDMDL
MODEL 8
REMARK VINA RESULT:      -6.8      4.475      7.774
REMARK  Name = ./3D_structures\o49_MMV638198_3D.pdb
REMARK  10 active torsions:
REMARK  status: ('A' for Active; 'I' for Inactive)
REMARK    1  A    between atoms: C1_2  and  O2_3
REMARK    2  A    between atoms: C1_2  and  C2_4
REMARK    3  A    between atoms: C5_7  and  C22_25
REMARK    4  A    between atoms: C6_8  and  C21_24
REMARK    5  A    between atoms: C8_10  and  C18_21
REMARK    6  A    between atoms: C10_12  and  C14_17
REMARK    7  A    between atoms: C10_12  and  C15_18
REMARK    8  A    between atoms: C11_13  and  O3_14
REMARK    9  A    between atoms: C25_28  and  C26_29
REMARK   10  A    between atoms: C26_29  and  C28_31
REMARK                            x       y       z     vdW  Elec       q    Type
REMARK                         _______ _______ _______ _____ _____    ______ ____
ROOT
ATOM      1  C2  UNL     1     155.567 157.995 168.771  0.00  0.00    +0.000 C 
ATOM      2  C3  UNL     1     156.120 159.246 168.074  0.00  0.00    +0.000 C 
ATOM      3  C4  UNL     1     155.234 160.395 168.144  0.00  0.00    +0.000 C 
ATOM      4  C5  UNL     1     153.784 160.005 167.858  0.00  0.00    +0.000 C 
ATOM      5  C6  UNL     1     152.949 161.214 168.199  0.00  0.00    +0.000 C 
ATOM      6  C7  UNL     1     153.145 162.217 167.106  0.00  0.00    +0.000 C 
ATOM      7  C8  UNL     1     152.211 163.379 167.113  0.00  0.00    +0.000 C 
ATOM      8  C9  UNL     1     150.802 162.940 167.345  0.00  0.00    +0.000 C 
ATOM      9  C10 UNL     1     149.818 164.083 167.389  0.00  0.00    +0.000 C 
ATOM     10  C11 UNL     1     149.948 165.006 166.225  0.00  0.00    +0.000 C 
ATOM     11  C12 UNL     1     151.249 165.085 165.549  0.00  0.00    +0.000 C 
ATOM     12  C13 UNL     1     152.172 163.925 165.666  0.00  0.00    +0.000 C 
ATOM     13  C14 UNL     1     148.444 163.394 167.238  0.00  0.00    +0.000 C 
ATOM     14  C15 UNL     1     149.778 164.786 168.713  0.00  0.00    +0.000 C 
ATOM     15  C16 UNL     1     150.588 161.963 168.450  0.00  0.00    +0.000 C 
ATOM     16  C17 UNL     1     151.501 160.776 168.300  0.00  0.00    +0.000 C 
ATOM     17  C18 UNL     1     152.709 164.525 167.908  0.00  0.00    +0.000 C 
ATOM     18  C19 UNL     1     154.584 162.567 167.007  0.00  0.00    +0.000 C 
ATOM     19  C20 UNL     1     155.555 161.446 167.079  0.00  0.00    +0.000 C 
ATOM     20  C21 UNL     1     153.314 161.750 169.559  0.00  0.00    +0.000 C 
ATOM     21  C22 UNL     1     153.668 159.545 166.437  0.00  0.00    +0.000 C 
ATOM     22  C23 UNL     1     153.308 158.835 168.682  0.00  0.00    +0.000 C 
ATOM     23  C24 UNL     1     154.183 157.622 168.431  0.00  0.00    +0.000 C 
ATOM     24  C25 UNL     1     157.440 159.212 168.777  0.00  0.00    +0.000 C 
ATOM     25  C29 UNL     1     157.871 157.810 168.199  0.00  0.00    +0.000 C 
ATOM     26  C30 UNL     1     156.602 156.987 168.257  0.00  0.00    +0.000 C 
ENDROOT
BRANCH  24  27
ATOM     27  C26 UNL     1     158.463 160.191 168.537  0.00  0.00    +0.000 C 
ATOM     28  C27 UNL     1     158.769 161.125 169.399  0.00  0.00    +0.000 C 
ATOM     29  C28 UNL     1     159.157 160.260 167.220  0.00  0.00    +0.000 C 
ENDBRANCH  24  27
BRANCH   1  31
ATOM     30  O1  UNL     1     155.976 156.961 170.879  0.00  0.00    +0.000 OA
ATOM     31  C1  UNL     1     155.747 158.022 170.244  0.00  0.00    +0.000 C 
BRANCH  31  32
ATOM     32  O2  UNL     1     155.679 159.165 171.024  0.00  0.00    +0.000 OA
ATOM     33  H1  UNL     1     155.047 159.257 171.821  0.00  0.00    +0.000 HD
ENDBRANCH  31  32
ENDBRANCH   1  31
BRANCH  10  34
ATOM     34  O3  UNL     1     149.632 166.303 166.708  0.00  0.00    +0.000 OA
ATOM     35  H7  UNL     1     149.079 166.233 167.542  0.00  0.00    +0.000 HD
ENDBRANCH  10  34
TORSDOF 4
ENDMDL
MODEL 9
REMARK VINA RESULT:      -6.7      4.953      6.763
REMARK  Name = ./3D_structures\o49_MMV638198_3D.pdb
REMARK  10 active torsions:
REMARK  status: ('A' for Active; 'I' for Inactive)
REMARK    1  A    between atoms: C1_2  and  O2_3
REMARK    2  A    between atoms: C1_2  and  C2_4
REMARK    3  A    between atoms: C5_7  and  C22_25
REMARK    4  A    between atoms: C6_8  and  C21_24
REMARK    5  A    between atoms: C8_10  and  C18_21
REMARK    6  A    between atoms: C10_12  and  C14_17
REMARK    7  A    between atoms: C10_12  and  C15_18
REMARK    8  A    between atoms: C11_13  and  O3_14
REMARK    9  A    between atoms: C25_28  and  C26_29
REMARK   10  A    between atoms: C26_29  and  C28_31
REMARK                            x       y       z     vdW  Elec       q    Type
REMARK                         _______ _______ _______ _____ _____    ______ ____
ROOT
ATOM      1  C2  UNL     1     151.640 164.901 165.769  0.00  0.00    +0.000 C 
ATOM      2  C3  UNL     1     151.378 163.704 166.695  0.00  0.00    +0.000 C 
ATOM      3  C4  UNL     1     152.514 162.807 166.827  0.00  0.00    +0.000 C 
ATOM      4  C5  UNL     1     153.169 162.528 165.475  0.00  0.00    +0.000 C 
ATOM      5  C6  UNL     1     154.456 161.800 165.773  0.00  0.00    +0.000 C 
ATOM      6  C7  UNL     1     154.098 160.398 166.157  0.00  0.00    +0.000 C 
ATOM      7  C8  UNL     1     155.234 159.436 166.241  0.00  0.00    +0.000 C 
ATOM      8  C9  UNL     1     156.149 159.574 165.068  0.00  0.00    +0.000 C 
ATOM      9  C10 UNL     1     157.332 158.640 165.118  0.00  0.00    +0.000 C 
ATOM     10  C11 UNL     1     156.944 157.224 165.381  0.00  0.00    +0.000 C 
ATOM     11  C12 UNL     1     155.687 156.975 166.097  0.00  0.00    +0.000 C 
ATOM     12  C13 UNL     1     154.633 158.023 166.050  0.00  0.00    +0.000 C 
ATOM     13  C14 UNL     1     157.890 158.672 163.679  0.00  0.00    +0.000 C 
ATOM     14  C15 UNL     1     158.444 159.131 165.996  0.00  0.00    +0.000 C 
ATOM     15  C16 UNL     1     156.536 160.964 164.693  0.00  0.00    +0.000 C 
ATOM     16  C17 UNL     1     155.320 161.834 164.529  0.00  0.00    +0.000 C 
ATOM     17  C18 UNL     1     155.852 159.376 167.586  0.00  0.00    +0.000 C 
ATOM     18  C19 UNL     1     153.204 160.421 167.342  0.00  0.00    +0.000 C 
ATOM     19  C20 UNL     1     152.107 161.423 167.337  0.00  0.00    +0.000 C 
ATOM     20  C21 UNL     1     155.241 162.517 166.841  0.00  0.00    +0.000 C 
ATOM     21  C22 UNL     1     152.210 161.774 164.607  0.00  0.00    +0.000 C 
ATOM     22  C23 UNL     1     153.488 163.782 164.698  0.00  0.00    +0.000 C 
ATOM     23  C24 UNL     1     152.226 164.587 164.455  0.00  0.00    +0.000 C 
ATOM     24  C25 UNL     1     150.879 164.532 167.837  0.00  0.00    +0.000 C 
ATOM     25  C29 UNL     1     149.647 165.124 167.053  0.00  0.00    +0.000 C 
ATOM     26  C30 UNL     1     150.200 165.418 165.675  0.00  0.00    +0.000 C 
ENDROOT
BRANCH  24  27
ATOM     27  C26 UNL     1     150.452 163.949 169.078  0.00  0.00    +0.000 C 
ATOM     28  C27 UNL     1     151.156 164.026 170.178  0.00  0.00    +0.000 C 
ATOM     29  C28 UNL     1     149.221 163.114 169.144  0.00  0.00    +0.000 C 
ENDBRANCH  24  27
BRANCH   1  31
ATOM     30  O1  UNL     1     153.298 165.724 167.271  0.00  0.00    +0.000 OA
ATOM     31  C1  UNL     1     152.403 165.991 166.428  0.00  0.00    +0.000 C 
BRANCH  31  32
ATOM     32  O2  UNL     1     152.210 167.341 166.188  0.00  0.00    +0.000 OA
ATOM     33  H1  UNL     1     151.552 167.693 165.491  0.00  0.00    +0.000 HD
ENDBRANCH  31  32
ENDBRANCH   1  31
BRANCH  10  34
ATOM     34  O3  UNL     1     157.997 156.658 166.145  0.00  0.00    +0.000 OA
ATOM     35  H7  UNL     1     157.686 156.488 167.084  0.00  0.00    +0.000 HD
ENDBRANCH  10  34
TORSDOF 4
ENDMDL
