MODEL 1
REMARK VINA RESULT:      -5.9      0.000      0.000
REMARK  Name = ./3D_structures\o52_MMV1580500_3D.pdb
REMARK  2 active torsions:
REMARK  status: ('A' for Active; 'I' for Inactive)
REMARK    1  A    between atoms: C3_4  and  O2_5
REMARK    2  A    between atoms: N1_10  and  C8_11
REMARK                            x       y       z     vdW  Elec       q    Type
REMARK                         _______ _______ _______ _____ _____    ______ ____
ROOT
ATOM      1  O1  UNL     1     155.015 156.766 167.511  0.00  0.00    +0.000 OA
ATOM      2  C1  UNL     1     156.187 157.152 167.665  0.00  0.00    +0.000 A 
ATOM      3  C2  UNL     1     156.589 157.670 168.876  0.00  0.00    +0.000 A 
ATOM      4  C3  UNL     1     155.752 157.793 169.965  0.00  0.00    +0.000 A 
ATOM      5  C4  UNL     1     156.207 158.326 171.183  0.00  0.00    +0.000 A 
ATOM      6  C5  UNL     1     157.513 158.723 171.258  0.00  0.00    +0.000 A 
ATOM      7  C6  UNL     1     158.353 158.597 170.158  0.00  0.00    +0.000 A 
ATOM      8  C7  UNL     1     157.902 158.073 168.962  0.00  0.00    +0.000 A 
ATOM      9  N1  UNL     1     158.751 157.959 167.894  0.00  0.00    +0.000 N 
ATOM     10  C8  UNL     1     160.087 158.415 168.091  0.00  0.00    +0.000 C 
ATOM     11  C9  UNL     1     158.366 157.452 166.708  0.00  0.00    +0.000 A 
ATOM     12  C10 UNL     1     157.038 157.033 166.587  0.00  0.00    +0.000 A 
ATOM     13  C11 UNL     1     156.625 156.508 165.375  0.00  0.00    +0.000 A 
ATOM     14  C12 UNL     1     157.450 156.374 164.278  0.00  0.00    +0.000 A 
ATOM     15  C13 UNL     1     158.757 156.800 164.438  0.00  0.00    +0.000 A 
ATOM     16  C14 UNL     1     159.204 157.326 165.624  0.00  0.00    +0.000 A 
ENDROOT
BRANCH   4  17
ATOM     17  O2  UNL     1     154.452 157.411 169.929  0.00  0.00    +0.000 OA
ATOM     18  H1  UNL     1     153.867 156.960 169.308  0.00  0.00    +0.000 HD
ENDBRANCH   4  17
TORSDOF 1
ENDMDL
MODEL 2
REMARK VINA RESULT:      -5.8     12.738     13.933
REMARK  Name = ./3D_structures\o52_MMV1580500_3D.pdb
REMARK  2 active torsions:
REMARK  status: ('A' for Active; 'I' for Inactive)
REMARK    1  A    between atoms: C3_4  and  O2_5
REMARK    2  A    between atoms: N1_10  and  C8_11
REMARK                            x       y       z     vdW  Elec       q    Type
REMARK                         _______ _______ _______ _____ _____    ______ ____
ROOT
ATOM      1  O1  UNL     1     146.812 167.394 165.734  0.00  0.00    +0.000 OA
ATOM      2  C1  UNL     1     146.638 166.207 166.062  0.00  0.00    +0.000 A 
ATOM      3  C2  UNL     1     145.385 165.642 165.969  0.00  0.00    +0.000 A 
ATOM      4  C3  UNL     1     144.275 166.326 165.521  0.00  0.00    +0.000 A 
ATOM      5  C4  UNL     1     143.015 165.708 165.440  0.00  0.00    +0.000 A 
ATOM      6  C5  UNL     1     142.921 164.399 165.822  0.00  0.00    +0.000 A 
ATOM      7  C6  UNL     1     144.043 163.713 166.273  0.00  0.00    +0.000 A 
ATOM      8  C7  UNL     1     145.279 164.324 166.351  0.00  0.00    +0.000 A 
ATOM      9  N1  UNL     1     146.368 163.625 166.798  0.00  0.00    +0.000 N 
ATOM     10  C8  UNL     1     146.144 162.270 167.176  0.00  0.00    +0.000 C 
ATOM     11  C9  UNL     1     147.596 164.170 166.891  0.00  0.00    +0.000 A 
ATOM     12  C10 UNL     1     147.738 165.507 166.510  0.00  0.00    +0.000 A 
ATOM     13  C11 UNL     1     148.993 166.083 166.598  0.00  0.00    +0.000 A 
ATOM     14  C12 UNL     1     150.114 165.412 167.039  0.00  0.00    +0.000 A 
ATOM     15  C13 UNL     1     149.932 164.090 167.406  0.00  0.00    +0.000 A 
ATOM     16  C14 UNL     1     148.703 163.484 167.334  0.00  0.00    +0.000 A 
ENDROOT
BRANCH   4  17
ATOM     17  O2  UNL     1     144.329 167.624 165.134  0.00  0.00    +0.000 OA
ATOM     18  H1  UNL     1     143.822 168.209 164.557  0.00  0.00    +0.000 HD
ENDBRANCH   4  17
TORSDOF 1
ENDMDL
MODEL 3
REMARK VINA RESULT:      -5.6     10.224     11.552
REMARK  Name = ./3D_structures\o52_MMV1580500_3D.pdb
REMARK  2 active torsions:
REMARK  status: ('A' for Active; 'I' for Inactive)
REMARK    1  A    between atoms: C3_4  and  O2_5
REMARK    2  A    between atoms: N1_10  and  C8_11
REMARK                            x       y       z     vdW  Elec       q    Type
REMARK                         _______ _______ _______ _____ _____    ______ ____
ROOT
ATOM      1  O1  UNL     1     149.463 150.839 165.856  0.00  0.00    +0.000 OA
ATOM      2  C1  UNL     1     148.511 151.511 166.291  0.00  0.00    +0.000 A 
ATOM      3  C2  UNL     1     148.604 152.124 167.520  0.00  0.00    +0.000 A 
ATOM      4  C3  UNL     1     149.718 152.041 168.329  0.00  0.00    +0.000 A 
ATOM      5  C4  UNL     1     149.769 152.685 169.576  0.00  0.00    +0.000 A 
ATOM      6  C5  UNL     1     148.674 153.403 169.969  0.00  0.00    +0.000 A 
ATOM      7  C6  UNL     1     147.553 153.484 169.152  0.00  0.00    +0.000 A 
ATOM      8  C7  UNL     1     147.506 152.848 167.927  0.00  0.00    +0.000 A 
ATOM      9  N1  UNL     1     146.390 152.946 167.140  0.00  0.00    +0.000 N 
ATOM     10  C8  UNL     1     145.308 153.713 167.661  0.00  0.00    +0.000 C 
ATOM     11  C9  UNL     1     146.292 152.350 165.936  0.00  0.00    +0.000 A 
ATOM     12  C10 UNL     1     147.390 151.606 165.494  0.00  0.00    +0.000 A 
ATOM     13  C11 UNL     1     147.307 150.989 164.259  0.00  0.00    +0.000 A 
ATOM     14  C12 UNL     1     146.203 151.066 163.437  0.00  0.00    +0.000 A 
ATOM     15  C13 UNL     1     145.137 151.812 163.910  0.00  0.00    +0.000 A 
ATOM     16  C14 UNL     1     145.181 152.438 165.130  0.00  0.00    +0.000 A 
ENDROOT
BRANCH   4  17
ATOM     17  O2  UNL     1     150.823 151.340 167.973  0.00  0.00    +0.000 OA
ATOM     18  H1  UNL     1     151.125 150.425 168.028  0.00  0.00    +0.000 HD
ENDBRANCH   4  17
TORSDOF 1
ENDMDL
MODEL 4
REMARK VINA RESULT:      -5.4      1.329      4.563
REMARK  Name = ./3D_structures\o52_MMV1580500_3D.pdb
REMARK  2 active torsions:
REMARK  status: ('A' for Active; 'I' for Inactive)
REMARK    1  A    between atoms: C3_4  and  O2_5
REMARK    2  A    between atoms: N1_10  and  C8_11
REMARK                            x       y       z     vdW  Elec       q    Type
REMARK                         _______ _______ _______ _____ _____    ______ ____
ROOT
ATOM      1  O1  UNL     1     154.671 157.018 167.373  0.00  0.00    +0.000 OA
ATOM      2  C1  UNL     1     155.725 157.552 167.766  0.00  0.00    +0.000 A 
ATOM      3  C2  UNL     1     156.897 157.355 167.071  0.00  0.00    +0.000 A 
ATOM      4  C3  UNL     1     156.986 156.582 165.932  0.00  0.00    +0.000 A 
ATOM      5  C4  UNL     1     158.204 156.411 165.254  0.00  0.00    +0.000 A 
ATOM      6  C5  UNL     1     159.309 157.037 165.760  0.00  0.00    +0.000 A 
ATOM      7  C6  UNL     1     159.216 157.815 166.908  0.00  0.00    +0.000 A 
ATOM      8  C7  UNL     1     158.017 157.980 167.572  0.00  0.00    +0.000 A 
ATOM      9  N1  UNL     1     157.952 158.753 168.700  0.00  0.00    +0.000 N 
ATOM     10  C8  UNL     1     159.172 159.346 169.137  0.00  0.00    +0.000 C 
ATOM     11  C9  UNL     1     156.809 158.951 169.384  0.00  0.00    +0.000 A 
ATOM     12  C10 UNL     1     155.653 158.329 168.902  0.00  0.00    +0.000 A 
ATOM     13  C11 UNL     1     154.470 158.523 169.591  0.00  0.00    +0.000 A 
ATOM     14  C12 UNL     1     154.364 159.295 170.728  0.00  0.00    +0.000 A 
ATOM     15  C13 UNL     1     155.529 159.894 171.174  0.00  0.00    +0.000 A 
ATOM     16  C14 UNL     1     156.723 159.725 170.518  0.00  0.00    +0.000 A 
ENDROOT
BRANCH   4  17
ATOM     17  O2  UNL     1     155.912 155.947 165.400  0.00  0.00    +0.000 OA
ATOM     18  H1  UNL     1     155.026 155.698 165.690  0.00  0.00    +0.000 HD
ENDBRANCH   4  17
TORSDOF 1
ENDMDL
MODEL 5
REMARK VINA RESULT:      -5.4      9.737     11.787
REMARK  Name = ./3D_structures\o52_MMV1580500_3D.pdb
REMARK  2 active torsions:
REMARK  status: ('A' for Active; 'I' for Inactive)
REMARK    1  A    between atoms: C3_4  and  O2_5
REMARK    2  A    between atoms: N1_10  and  C8_11
REMARK                            x       y       z     vdW  Elec       q    Type
REMARK                         _______ _______ _______ _____ _____    ______ ____
ROOT
ATOM      1  O1  UNL     1     150.311 152.135 168.368  0.00  0.00    +0.000 OA
ATOM      2  C1  UNL     1     149.200 152.302 168.903  0.00  0.00    +0.000 A 
ATOM      3  C2  UNL     1     148.079 151.712 168.364  0.00  0.00    +0.000 A 
ATOM      4  C3  UNL     1     148.105 150.922 167.234  0.00  0.00    +0.000 A 
ATOM      5  C4  UNL     1     146.935 150.337 166.720  0.00  0.00    +0.000 A 
ATOM      6  C5  UNL     1     145.760 150.576 167.377  0.00  0.00    +0.000 A 
ATOM      7  C6  UNL     1     145.738 151.374 168.515  0.00  0.00    +0.000 A 
ATOM      8  C7  UNL     1     146.890 151.947 169.017  0.00  0.00    +0.000 A 
ATOM      9  N1  UNL     1     146.842 152.727 170.142  0.00  0.00    +0.000 N 
ATOM     10  C8  UNL     1     145.558 152.911 170.733  0.00  0.00    +0.000 C 
ATOM     11  C9  UNL     1     147.933 153.306 170.675  0.00  0.00    +0.000 A 
ATOM     12  C10 UNL     1     149.157 153.087 170.035  0.00  0.00    +0.000 A 
ATOM     13  C11 UNL     1     150.289 153.674 170.571  0.00  0.00    +0.000 A 
ATOM     14  C12 UNL     1     150.281 154.462 171.702  0.00  0.00    +0.000 A 
ATOM     15  C13 UNL     1     149.051 154.655 172.307  0.00  0.00    +0.000 A 
ATOM     16  C14 UNL     1     147.905 154.090 171.805  0.00  0.00    +0.000 A 
ENDROOT
BRANCH   4  17
ATOM     17  O2  UNL     1     149.250 150.661 166.556  0.00  0.00    +0.000 OA
ATOM     18  H1  UNL     1     149.764 149.881 166.315  0.00  0.00    +0.000 HD
ENDBRANCH   4  17
TORSDOF 1
ENDMDL
MODEL 6
REMARK VINA RESULT:      -5.4      9.509     10.864
REMARK  Name = ./3D_structures\o52_MMV1580500_3D.pdb
REMARK  2 active torsions:
REMARK  status: ('A' for Active; 'I' for Inactive)
REMARK    1  A    between atoms: C3_4  and  O2_5
REMARK    2  A    between atoms: N1_10  and  C8_11
REMARK                            x       y       z     vdW  Elec       q    Type
REMARK                         _______ _______ _______ _____ _____    ______ ____
ROOT
ATOM      1  O1  UNL     1     150.695 153.244 169.346  0.00  0.00    +0.000 OA
ATOM      2  C1  UNL     1     149.588 152.764 169.651  0.00  0.00    +0.000 A 
ATOM      3  C2  UNL     1     149.095 152.926 170.926  0.00  0.00    +0.000 A 
ATOM      4  C3  UNL     1     149.765 153.607 171.920  0.00  0.00    +0.000 A 
ATOM      5  C4  UNL     1     149.222 153.748 173.208  0.00  0.00    +0.000 A 
ATOM      6  C5  UNL     1     147.999 153.187 173.450  0.00  0.00    +0.000 A 
ATOM      7  C6  UNL     1     147.326 152.502 172.445  0.00  0.00    +0.000 A 
ATOM      8  C7  UNL     1     147.864 152.364 171.181  0.00  0.00    +0.000 A 
ATOM      9  N1  UNL     1     147.180 151.685 170.208  0.00  0.00    +0.000 N 
ATOM     10  C8  UNL     1     145.919 151.137 170.583  0.00  0.00    +0.000 C 
ATOM     11  C9  UNL     1     147.655 151.524 168.959  0.00  0.00    +0.000 A 
ATOM     12  C10 UNL     1     148.903 152.083 168.668  0.00  0.00    +0.000 A 
ATOM     13  C11 UNL     1     149.406 151.928 167.388  0.00  0.00    +0.000 A 
ATOM     14  C12 UNL     1     148.747 151.255 166.383  0.00  0.00    +0.000 A 
ATOM     15  C13 UNL     1     147.514 150.717 166.710  0.00  0.00    +0.000 A 
ATOM     16  C14 UNL     1     146.982 150.849 167.968  0.00  0.00    +0.000 A 
ENDROOT
BRANCH   4  17
ATOM     17  O2  UNL     1     150.979 154.177 171.719  0.00  0.00    +0.000 OA
ATOM     18  H1  UNL     1     151.525 154.422 170.962  0.00  0.00    +0.000 HD
ENDBRANCH   4  17
TORSDOF 1
ENDMDL
MODEL 7
REMARK VINA RESULT:      -5.4      2.798      6.206
REMARK  Name = ./3D_structures\o52_MMV1580500_3D.pdb
REMARK  2 active torsions:
REMARK  status: ('A' for Active; 'I' for Inactive)
REMARK    1  A    between atoms: C3_4  and  O2_5
REMARK    2  A    between atoms: N1_10  and  C8_11
REMARK                            x       y       z     vdW  Elec       q    Type
REMARK                         _______ _______ _______ _____ _____    ______ ____
ROOT
ATOM      1  O1  UNL     1     157.713 158.847 171.787  0.00  0.00    +0.000 OA
ATOM      2  C1  UNL     1     156.667 158.923 171.118  0.00  0.00    +0.000 A 
ATOM      3  C2  UNL     1     156.661 158.528 169.799  0.00  0.00    +0.000 A 
ATOM      4  C3  UNL     1     157.773 158.036 169.148  0.00  0.00    +0.000 A 
ATOM      5  C4  UNL     1     157.720 157.642 167.801  0.00  0.00    +0.000 A 
ATOM      6  C5  UNL     1     156.526 157.761 167.147  0.00  0.00    +0.000 A 
ATOM      7  C6  UNL     1     155.407 158.258 167.806  0.00  0.00    +0.000 A 
ATOM      8  C7  UNL     1     155.463 158.645 169.131  0.00  0.00    +0.000 A 
ATOM      9  N1  UNL     1     154.346 159.129 169.758  0.00  0.00    +0.000 N 
ATOM     10  C8  UNL     1     153.161 159.216 168.970  0.00  0.00    +0.000 C 
ATOM     11  C9  UNL     1     154.343 159.516 171.047  0.00  0.00    +0.000 A 
ATOM     12  C10 UNL     1     155.545 159.411 171.754  0.00  0.00    +0.000 A 
ATOM     13  C11 UNL     1     155.560 159.803 173.081  0.00  0.00    +0.000 A 
ATOM     14  C12 UNL     1     154.457 160.293 173.747  0.00  0.00    +0.000 A 
ATOM     15  C13 UNL     1     153.286 160.381 173.013  0.00  0.00    +0.000 A 
ATOM     16  C14 UNL     1     153.232 160.003 171.695  0.00  0.00    +0.000 A 
ENDROOT
BRANCH   4  17
ATOM     17  O2  UNL     1     158.974 157.902 169.763  0.00  0.00    +0.000 OA
ATOM     18  H1  UNL     1     159.425 157.232 170.290  0.00  0.00    +0.000 HD
ENDBRANCH   4  17
TORSDOF 1
ENDMDL
MODEL 8
REMARK VINA RESULT:      -5.4      2.089      5.409
REMARK  Name = ./3D_structures\o52_MMV1580500_3D.pdb
REMARK  2 active torsions:
REMARK  status: ('A' for Active; 'I' for Inactive)
REMARK    1  A    between atoms: C3_4  and  O2_5
REMARK    2  A    between atoms: N1_10  and  C8_11
REMARK                            x       y       z     vdW  Elec       q    Type
REMARK                         _______ _______ _______ _____ _____    ______ ____
ROOT
ATOM      1  O1  UNL     1     159.611 158.339 168.749  0.00  0.00    +0.000 OA
ATOM      2  C1  UNL     1     158.399 158.124 168.567  0.00  0.00    +0.000 A 
ATOM      3  C2  UNL     1     157.965 157.592 167.374  0.00  0.00    +0.000 A 
ATOM      4  C3  UNL     1     158.809 157.269 166.333  0.00  0.00    +0.000 A 
ATOM      5  C4  UNL     1     158.321 156.725 165.133  0.00  0.00    +0.000 A 
ATOM      6  C5  UNL     1     156.974 156.523 165.025  0.00  0.00    +0.000 A 
ATOM      7  C6  UNL     1     156.125 156.850 166.077  0.00  0.00    +0.000 A 
ATOM      8  C7  UNL     1     156.609 157.385 167.255  0.00  0.00    +0.000 A 
ATOM      9  N1  UNL     1     155.751 157.696 168.276  0.00  0.00    +0.000 N 
ATOM     10  C8  UNL     1     154.367 157.450 168.042  0.00  0.00    +0.000 C 
ATOM     11  C9  UNL     1     156.168 158.216 169.445  0.00  0.00    +0.000 A 
ATOM     12  C10 UNL     1     157.540 158.439 169.599  0.00  0.00    +0.000 A 
ATOM     13  C11 UNL     1     157.987 158.971 170.796  0.00  0.00    +0.000 A 
ATOM     14  C12 UNL     1     157.156 159.295 171.847  0.00  0.00    +0.000 A 
ATOM     15  C13 UNL     1     155.805 159.059 171.656  0.00  0.00    +0.000 A 
ATOM     16  C14 UNL     1     155.324 158.533 170.484  0.00  0.00    +0.000 A 
ENDROOT
BRANCH   4  17
ATOM     17  O2  UNL     1     160.151 157.453 166.403  0.00  0.00    +0.000 OA
ATOM     18  H1  UNL     1     160.812 157.558 167.097  0.00  0.00    +0.000 HD
ENDBRANCH   4  17
TORSDOF 1
ENDMDL
MODEL 9
REMARK VINA RESULT:      -5.3      1.839      2.670
REMARK  Name = ./3D_structures\o52_MMV1580500_3D.pdb
REMARK  2 active torsions:
REMARK  status: ('A' for Active; 'I' for Inactive)
REMARK    1  A    between atoms: C3_4  and  O2_5
REMARK    2  A    between atoms: N1_10  and  C8_11
REMARK                            x       y       z     vdW  Elec       q    Type
REMARK                         _______ _______ _______ _____ _____    ______ ____
ROOT
ATOM      1  O1  UNL     1     153.263 158.935 168.841  0.00  0.00    +0.000 OA
ATOM      2  C1  UNL     1     154.469 158.795 169.114  0.00  0.00    +0.000 A 
ATOM      3  C2  UNL     1     154.948 159.188 170.343  0.00  0.00    +0.000 A 
ATOM      4  C3  UNL     1     154.155 159.743 171.326  0.00  0.00    +0.000 A 
ATOM      5  C4  UNL     1     154.687 160.128 172.568  0.00  0.00    +0.000 A 
ATOM      6  C5  UNL     1     156.024 159.934 172.778  0.00  0.00    +0.000 A 
ATOM      7  C6  UNL     1     156.820 159.374 171.785  0.00  0.00    +0.000 A 
ATOM      8  C7  UNL     1     156.293 158.998 170.565  0.00  0.00    +0.000 A 
ATOM      9  N1  UNL     1     157.099 158.447 169.605  0.00  0.00    +0.000 N 
ATOM     10  C8  UNL     1     158.478 158.304 169.936  0.00  0.00    +0.000 C 
ATOM     11  C9  UNL     1     156.638 158.059 168.401  0.00  0.00    +0.000 A 
ATOM     12  C10 UNL     1     155.276 158.238 168.144  0.00  0.00    +0.000 A 
ATOM     13  C11 UNL     1     154.785 157.844 166.912  0.00  0.00    +0.000 A 
ATOM     14  C12 UNL     1     155.562 157.284 165.922  0.00  0.00    +0.000 A 
ATOM     15  C13 UNL     1     156.906 157.122 166.214  0.00  0.00    +0.000 A 
ATOM     16  C14 UNL     1     157.430 157.501 167.424  0.00  0.00    +0.000 A 
ENDROOT
BRANCH   4  17
ATOM     17  O2  UNL     1     152.826 159.950 171.156  0.00  0.00    +0.000 OA
ATOM     18  H1  UNL     1     152.264 160.477 170.575  0.00  0.00    +0.000 HD
ENDBRANCH   4  17
TORSDOF 1
ENDMDL
