MODEL 1
REMARK VINA RESULT:      -5.8      0.000      0.000
REMARK  Name = ./3D_structures\o62_MMV1782210_3D.pdb
REMARK  5 active torsions:
REMARK  status: ('A' for Active; 'I' for Inactive)
REMARK    1  A    between atoms: N4_8  and  C5_9
REMARK    2  A    between atoms: C8_12  and  C9_13
REMARK    3  A    between atoms: C8_12  and  C10_15
REMARK    4  A    between atoms: C9_13  and  O1_14
REMARK    5  A    between atoms: C10_15  and  O2_16
REMARK                            x       y       z     vdW  Elec       q    Type
REMARK                         _______ _______ _______ _____ _____    ______ ____
ROOT
ATOM      1  N1  UNL     1     144.961 169.150 165.506  0.00  0.00    +0.000 N 
ATOM      2  C1  UNL     1     145.062 167.753 165.719  0.00  0.00    +0.000 A 
ATOM      3  N2  UNL     1     146.228 167.180 166.067  0.00  0.00    +0.000 NA
ATOM      4  C2  UNL     1     146.364 165.855 166.277  0.00  0.00    +0.000 A 
ATOM      5  C3  UNL     1     145.283 165.023 166.138  0.00  0.00    +0.000 A 
ATOM      6  N3  UNL     1     145.701 163.768 166.404  0.00  0.00    +0.000 NA
ATOM      7  C4  UNL     1     147.017 163.784 166.708  0.00  0.00    +0.000 A 
ATOM      8  N4  UNL     1     147.407 165.069 166.626  0.00  0.00    +0.000 N 
ATOM      9  C11 UNL     1     144.086 165.608 165.780  0.00  0.00    +0.000 A 
ATOM     10  O3  UNL     1     143.079 164.875 165.646  0.00  0.00    +0.000 OA
ATOM     11  N5  UNL     1     143.984 166.932 165.579  0.00  0.00    +0.000 N 
ATOM     12  H1  UNL     1     144.327 169.733 166.065  0.00  0.00    +0.000 HD
ATOM     13  H2  UNL     1     145.544 169.581 164.770  0.00  0.00    +0.000 HD
ATOM     14  H13 UNL     1     143.099 167.408 165.309  0.00  0.00    +0.000 HD
ENDROOT
BRANCH   8  15
ATOM     15  C5  UNL     1     148.704 165.609 166.855  0.00  0.00    +0.000 C 
ATOM     16  C6  UNL     1     149.281 165.365 168.020  0.00  0.00    +0.000 C 
ATOM     17  C7  UNL     1     150.547 165.617 168.850  0.00  0.00    +0.000 C 
ATOM     18  C8  UNL     1     149.426 164.824 169.371  0.00  0.00    +0.000 C 
BRANCH  18  19
ATOM     19  C9  UNL     1     149.683 163.332 169.544  0.00  0.00    +0.000 C 
BRANCH  19  20
ATOM     20  O1  UNL     1     148.444 162.694 169.501  0.00  0.00    +0.000 OA
ATOM     21  H9  UNL     1     148.251 162.228 170.356  0.00  0.00    +0.000 HD
ENDBRANCH  19  20
ENDBRANCH  18  19
BRANCH  18  22
ATOM     22  C10 UNL     1     148.580 165.488 170.435  0.00  0.00    +0.000 C 
BRANCH  22  23
ATOM     23  O2  UNL     1     147.306 164.971 170.399  0.00  0.00    +0.000 OA
ATOM     24  H12 UNL     1     147.300 164.174 169.793  0.00  0.00    +0.000 HD
ENDBRANCH  22  23
ENDBRANCH  18  22
ENDBRANCH   8  15
TORSDOF 5
ENDMDL
MODEL 2
REMARK VINA RESULT:      -5.7      1.669      2.732
REMARK  Name = ./3D_structures\o62_MMV1782210_3D.pdb
REMARK  5 active torsions:
REMARK  status: ('A' for Active; 'I' for Inactive)
REMARK    1  A    between atoms: N4_8  and  C5_9
REMARK    2  A    between atoms: C8_12  and  C9_13
REMARK    3  A    between atoms: C8_12  and  C10_15
REMARK    4  A    between atoms: C9_13  and  O1_14
REMARK    5  A    between atoms: C10_15  and  O2_16
REMARK                            x       y       z     vdW  Elec       q    Type
REMARK                         _______ _______ _______ _____ _____    ______ ____
ROOT
ATOM      1  N1  UNL     1     143.122 163.105 166.878  0.00  0.00    +0.000 N 
ATOM      2  C1  UNL     1     143.993 164.166 166.531  0.00  0.00    +0.000 A 
ATOM      3  N2  UNL     1     145.323 164.071 166.719  0.00  0.00    +0.000 NA
ATOM      4  C2  UNL     1     146.184 165.058 166.402  0.00  0.00    +0.000 A 
ATOM      5  C3  UNL     1     145.719 166.228 165.860  0.00  0.00    +0.000 A 
ATOM      6  N3  UNL     1     146.784 167.026 165.645  0.00  0.00    +0.000 NA
ATOM      7  C4  UNL     1     147.912 166.393 166.036  0.00  0.00    +0.000 A 
ATOM      8  N4  UNL     1     147.526 165.190 166.496  0.00  0.00    +0.000 N 
ATOM      9  C11 UNL     1     144.356 166.329 165.665  0.00  0.00    +0.000 A 
ATOM     10  O3  UNL     1     143.899 167.385 165.171  0.00  0.00    +0.000 OA
ATOM     11  N5  UNL     1     143.525 165.326 165.992  0.00  0.00    +0.000 N 
ATOM     12  H1  UNL     1     142.527 162.648 166.178  0.00  0.00    +0.000 HD
ATOM     13  H2  UNL     1     143.092 162.792 167.863  0.00  0.00    +0.000 HD
ATOM     14  H13 UNL     1     142.493 165.365 165.860  0.00  0.00    +0.000 HD
ENDROOT
BRANCH   8  15
ATOM     15  C5  UNL     1     148.342 164.149 167.024  0.00  0.00    +0.000 C 
ATOM     16  C6  UNL     1     148.337 163.960 168.333  0.00  0.00    +0.000 C 
ATOM     17  C7  UNL     1     148.924 163.100 169.461  0.00  0.00    +0.000 C 
ATOM     18  C8  UNL     1     147.971 164.184 169.731  0.00  0.00    +0.000 C 
BRANCH  18  19
ATOM     19  C9  UNL     1     146.589 163.758 170.209  0.00  0.00    +0.000 C 
BRANCH  19  20
ATOM     20  O1  UNL     1     145.669 164.646 169.651  0.00  0.00    +0.000 OA
ATOM     21  H9  UNL     1     146.112 165.272 169.021  0.00  0.00    +0.000 HD
ENDBRANCH  19  20
ENDBRANCH  18  19
BRANCH  18  22
ATOM     22  C10 UNL     1     148.547 165.432 170.365  0.00  0.00    +0.000 C 
BRANCH  22  23
ATOM     23  O2  UNL     1     147.523 166.238 170.805  0.00  0.00    +0.000 OA
ATOM     24  H12 UNL     1     147.797 166.663 171.669  0.00  0.00    +0.000 HD
ENDBRANCH  22  23
ENDBRANCH  18  22
ENDBRANCH   8  15
TORSDOF 5
ENDMDL
MODEL 3
REMARK VINA RESULT:      -5.5      2.557      5.086
REMARK  Name = ./3D_structures\o62_MMV1782210_3D.pdb
REMARK  5 active torsions:
REMARK  status: ('A' for Active; 'I' for Inactive)
REMARK    1  A    between atoms: N4_8  and  C5_9
REMARK    2  A    between atoms: C8_12  and  C9_13
REMARK    3  A    between atoms: C8_12  and  C10_15
REMARK    4  A    between atoms: C9_13  and  O1_14
REMARK    5  A    between atoms: C10_15  and  O2_16
REMARK                            x       y       z     vdW  Elec       q    Type
REMARK                         _______ _______ _______ _____ _____    ______ ____
ROOT
ATOM      1  N1  UNL     1     145.021 167.927 165.508  0.00  0.00    +0.000 N 
ATOM      2  C1  UNL     1     145.853 166.870 165.950  0.00  0.00    +0.000 A 
ATOM      3  N2  UNL     1     145.354 165.826 166.637  0.00  0.00    +0.000 NA
ATOM      4  C2  UNL     1     146.113 164.802 167.075  0.00  0.00    +0.000 A 
ATOM      5  C3  UNL     1     147.462 164.790 166.827  0.00  0.00    +0.000 A 
ATOM      6  N3  UNL     1     147.964 163.664 167.372  0.00  0.00    +0.000 NA
ATOM      7  C4  UNL     1     146.970 162.961 167.958  0.00  0.00    +0.000 A 
ATOM      8  N4  UNL     1     145.844 163.672 167.767  0.00  0.00    +0.000 N 
ATOM      9  C11 UNL     1     147.976 165.859 166.123  0.00  0.00    +0.000 A 
ATOM     10  O3  UNL     1     149.205 165.879 165.879  0.00  0.00    +0.000 OA
ATOM     11  N5  UNL     1     147.192 166.864 165.700  0.00  0.00    +0.000 N 
ATOM     12  H1  UNL     1     144.930 168.158 164.512  0.00  0.00    +0.000 HD
ATOM     13  H2  UNL     1     144.498 168.473 166.212  0.00  0.00    +0.000 HD
ATOM     14  H13 UNL     1     147.544 167.686 165.167  0.00  0.00    +0.000 HD
ENDROOT
BRANCH   8  15
ATOM     15  C5  UNL     1     144.523 163.357 168.196  0.00  0.00    +0.000 C 
ATOM     16  C6  UNL     1     143.636 163.019 167.274  0.00  0.00    +0.000 C 
ATOM     17  C7  UNL     1     142.176 162.599 167.058  0.00  0.00    +0.000 C 
ATOM     18  C8  UNL     1     143.114 162.738 165.937  0.00  0.00    +0.000 C 
BRANCH  18  19
ATOM     19  C9  UNL     1     143.524 161.447 165.241  0.00  0.00    +0.000 C 
BRANCH  19  20
ATOM     20  O1  UNL     1     144.918 161.438 165.177  0.00  0.00    +0.000 OA
ATOM     21  H9  UNL     1     145.270 162.331 164.923  0.00  0.00    +0.000 HD
ENDBRANCH  19  20
ENDBRANCH  18  19
BRANCH  18  22
ATOM     22  C10 UNL     1     142.912 163.946 165.048  0.00  0.00    +0.000 C 
BRANCH  22  23
ATOM     23  O2  UNL     1     142.571 165.032 165.819  0.00  0.00    +0.000 OA
ATOM     24  H12 UNL     1     142.896 164.878 166.753  0.00  0.00    +0.000 HD
ENDBRANCH  22  23
ENDBRANCH  18  22
ENDBRANCH   8  15
TORSDOF 5
ENDMDL
MODEL 4
REMARK VINA RESULT:      -5.3      1.880      2.532
REMARK  Name = ./3D_structures\o62_MMV1782210_3D.pdb
REMARK  5 active torsions:
REMARK  status: ('A' for Active; 'I' for Inactive)
REMARK    1  A    between atoms: N4_8  and  C5_9
REMARK    2  A    between atoms: C8_12  and  C9_13
REMARK    3  A    between atoms: C8_12  and  C10_15
REMARK    4  A    between atoms: C9_13  and  O1_14
REMARK    5  A    between atoms: C10_15  and  O2_16
REMARK                            x       y       z     vdW  Elec       q    Type
REMARK                         _______ _______ _______ _____ _____    ______ ____
ROOT
ATOM      1  N1  UNL     1     144.978 167.898 165.394  0.00  0.00    +0.000 N 
ATOM      2  C1  UNL     1     144.778 166.626 165.984  0.00  0.00    +0.000 A 
ATOM      3  N2  UNL     1     145.571 166.182 166.976  0.00  0.00    +0.000 NA
ATOM      4  C2  UNL     1     145.414 164.978 167.562  0.00  0.00    +0.000 A 
ATOM      5  C3  UNL     1     144.408 164.141 167.153  0.00  0.00    +0.000 A 
ATOM      6  N3  UNL     1     144.484 163.021 167.901  0.00  0.00    +0.000 NA
ATOM      7  C4  UNL     1     145.510 163.127 168.773  0.00  0.00    +0.000 A 
ATOM      8  N4  UNL     1     146.068 164.331 168.552  0.00  0.00    +0.000 N 
ATOM      9  C11 UNL     1     143.593 164.593 166.135  0.00  0.00    +0.000 A 
ATOM     10  O3  UNL     1     142.664 163.853 165.738  0.00  0.00    +0.000 OA
ATOM     11  N5  UNL     1     143.777 165.799 165.572  0.00  0.00    +0.000 N 
ATOM     12  H1  UNL     1     144.248 168.620 165.413  0.00  0.00    +0.000 HD
ATOM     13  H2  UNL     1     145.883 168.094 164.935  0.00  0.00    +0.000 HD
ATOM     14  H13 UNL     1     143.184 166.174 164.804  0.00  0.00    +0.000 HD
ENDROOT
BRANCH   8  15
ATOM     15  C5  UNL     1     147.184 164.916 169.215  0.00  0.00    +0.000 C 
ATOM     16  C6  UNL     1     148.344 164.933 168.580  0.00  0.00    +0.000 C 
ATOM     17  C7  UNL     1     149.812 165.365 168.696  0.00  0.00    +0.000 C 
ATOM     18  C8  UNL     1     149.296 164.695 167.495  0.00  0.00    +0.000 C 
BRANCH  18  19
ATOM     19  C9  UNL     1     149.210 165.548 166.236  0.00  0.00    +0.000 C 
BRANCH  19  20
ATOM     20  O1  UNL     1     148.487 166.694 166.565  0.00  0.00    +0.000 OA
ATOM     21  H9  UNL     1     149.071 167.497 166.573  0.00  0.00    +0.000 HD
ENDBRANCH  19  20
ENDBRANCH  18  19
BRANCH  18  22
ATOM     22  C10 UNL     1     149.722 163.255 167.304  0.00  0.00    +0.000 C 
BRANCH  22  23
ATOM     23  O2  UNL     1     148.609 162.469 167.116  0.00  0.00    +0.000 OA
ATOM     24  H12 UNL     1     148.661 162.050 166.208  0.00  0.00    +0.000 HD
ENDBRANCH  22  23
ENDBRANCH  18  22
ENDBRANCH   8  15
TORSDOF 5
ENDMDL
MODEL 5
REMARK VINA RESULT:      -5.2      2.728      4.271
REMARK  Name = ./3D_structures\o62_MMV1782210_3D.pdb
REMARK  5 active torsions:
REMARK  status: ('A' for Active; 'I' for Inactive)
REMARK    1  A    between atoms: N4_8  and  C5_9
REMARK    2  A    between atoms: C8_12  and  C9_13
REMARK    3  A    between atoms: C8_12  and  C10_15
REMARK    4  A    between atoms: C9_13  and  O1_14
REMARK    5  A    between atoms: C10_15  and  O2_16
REMARK                            x       y       z     vdW  Elec       q    Type
REMARK                         _______ _______ _______ _____ _____    ______ ____
ROOT
ATOM      1  N1  UNL     1     142.653 165.458 165.472  0.00  0.00    +0.000 N 
ATOM      2  C1  UNL     1     143.971 165.487 165.990  0.00  0.00    +0.000 A 
ATOM      3  N2  UNL     1     144.365 164.629 166.949  0.00  0.00    +0.000 NA
ATOM      4  C2  UNL     1     145.609 164.626 167.469  0.00  0.00    +0.000 A 
ATOM      5  C3  UNL     1     146.543 165.526 167.022  0.00  0.00    +0.000 A 
ATOM      6  N3  UNL     1     147.683 165.299 167.706  0.00  0.00    +0.000 NA
ATOM      7  C4  UNL     1     147.497 164.280 168.573  0.00  0.00    +0.000 A 
ATOM      8  N4  UNL     1     146.222 163.880 168.414  0.00  0.00    +0.000 N 
ATOM      9  C11 UNL     1     146.142 166.407 166.039  0.00  0.00    +0.000 A 
ATOM     10  O3  UNL     1     146.971 167.241 165.608  0.00  0.00    +0.000 OA
ATOM     11  N5  UNL     1     144.894 166.383 165.542  0.00  0.00    +0.000 N 
ATOM     12  H1  UNL     1     142.472 165.287 164.476  0.00  0.00    +0.000 HD
ATOM     13  H2  UNL     1     141.864 165.614 166.119  0.00  0.00    +0.000 HD
ATOM     14  H13 UNL     1     144.555 167.031 164.801  0.00  0.00    +0.000 HD
ENDROOT
BRANCH   8  15
ATOM     15  C5  UNL     1     145.539 162.836 169.099  0.00  0.00    +0.000 C 
ATOM     16  C6  UNL     1     145.534 161.632 168.549  0.00  0.00    +0.000 C 
ATOM     17  C7  UNL     1     145.038 160.191 168.730  0.00  0.00    +0.000 C 
ATOM     18  C8  UNL     1     145.831 160.595 167.562  0.00  0.00    +0.000 C 
BRANCH  18  19
ATOM     19  C9  UNL     1     147.244 160.033 167.484  0.00  0.00    +0.000 C 
BRANCH  19  20
ATOM     20  O1  UNL     1     148.004 160.694 168.448  0.00  0.00    +0.000 OA
ATOM     21  H9  UNL     1     148.648 161.322 168.029  0.00  0.00    +0.000 HD
ENDBRANCH  19  20
ENDBRANCH  18  19
BRANCH  18  22
ATOM     22  C10 UNL     1     145.078 160.704 166.254  0.00  0.00    +0.000 C 
BRANCH  22  23
ATOM     23  O2  UNL     1     145.393 161.894 165.639  0.00  0.00    +0.000 OA
ATOM     24  H12 UNL     1     145.818 161.696 164.755  0.00  0.00    +0.000 HD
ENDBRANCH  22  23
ENDBRANCH  18  22
ENDBRANCH   8  15
TORSDOF 5
ENDMDL
MODEL 6
REMARK VINA RESULT:      -5.1      2.539      3.123
REMARK  Name = ./3D_structures\o62_MMV1782210_3D.pdb
REMARK  5 active torsions:
REMARK  status: ('A' for Active; 'I' for Inactive)
REMARK    1  A    between atoms: N4_8  and  C5_9
REMARK    2  A    between atoms: C8_12  and  C9_13
REMARK    3  A    between atoms: C8_12  and  C10_15
REMARK    4  A    between atoms: C9_13  and  O1_14
REMARK    5  A    between atoms: C10_15  and  O2_16
REMARK                            x       y       z     vdW  Elec       q    Type
REMARK                         _______ _______ _______ _____ _____    ______ ____
ROOT
ATOM      1  N1  UNL     1     144.882 168.379 165.561  0.00  0.00    +0.000 N 
ATOM      2  C1  UNL     1     145.306 167.052 165.811  0.00  0.00    +0.000 A 
ATOM      3  N2  UNL     1     146.509 166.792 166.355  0.00  0.00    +0.000 NA
ATOM      4  C2  UNL     1     146.949 165.542 166.607  0.00  0.00    +0.000 A 
ATOM      5  C3  UNL     1     146.160 164.462 166.306  0.00  0.00    +0.000 A 
ATOM      6  N3  UNL     1     146.841 163.353 166.658  0.00  0.00    +0.000 NA
ATOM      7  C4  UNL     1     148.040 163.701 167.174  0.00  0.00    +0.000 A 
ATOM      8  N4  UNL     1     148.090 165.045 167.135  0.00  0.00    +0.000 N 
ATOM      9  C11 UNL     1     144.926 164.725 165.747  0.00  0.00    +0.000 A 
ATOM     10  O3  UNL     1     144.180 163.761 165.462  0.00  0.00    +0.000 OA
ATOM     11  N5  UNL     1     144.517 165.982 165.510  0.00  0.00    +0.000 N 
ATOM     12  H1  UNL     1     144.035 168.763 165.998  0.00  0.00    +0.000 HD
ATOM     13  H2  UNL     1     145.443 168.967 164.923  0.00  0.00    +0.000 HD
ATOM     14  H13 UNL     1     143.595 166.220 165.090  0.00  0.00    +0.000 HD
ENDROOT
BRANCH   8  15
ATOM     15  C5  UNL     1     149.146 165.897 167.564  0.00  0.00    +0.000 C 
ATOM     16  C6  UNL     1     150.348 165.704 167.046  0.00  0.00    +0.000 C 
ATOM     17  C7  UNL     1     151.798 166.209 167.062  0.00  0.00    +0.000 C 
ATOM     18  C8  UNL     1     151.379 165.086 166.213  0.00  0.00    +0.000 C 
BRANCH  18  19
ATOM     19  C9  UNL     1     151.369 165.347 164.712  0.00  0.00    +0.000 C 
BRANCH  19  20
ATOM     20  O1  UNL     1     151.745 164.160 164.085  0.00  0.00    +0.000 OA
ATOM     21  H9  UNL     1     152.144 164.336 163.194  0.00  0.00    +0.000 HD
ENDBRANCH  19  20
ENDBRANCH  18  19
BRANCH  18  22
ATOM     22  C10 UNL     1     151.839 163.713 166.653  0.00  0.00    +0.000 C 
BRANCH  22  23
ATOM     23  O2  UNL     1     153.214 163.662 166.636  0.00  0.00    +0.000 OA
ATOM     24  H12 UNL     1     153.556 163.915 167.542  0.00  0.00    +0.000 HD
ENDBRANCH  22  23
ENDBRANCH  18  22
ENDBRANCH   8  15
TORSDOF 5
ENDMDL
MODEL 7
REMARK VINA RESULT:      -5.0     24.388     27.064
REMARK  Name = ./3D_structures\o62_MMV1782210_3D.pdb
REMARK  5 active torsions:
REMARK  status: ('A' for Active; 'I' for Inactive)
REMARK    1  A    between atoms: N4_8  and  C5_9
REMARK    2  A    between atoms: C8_12  and  C9_13
REMARK    3  A    between atoms: C8_12  and  C10_15
REMARK    4  A    between atoms: C9_13  and  O1_14
REMARK    5  A    between atoms: C10_15  and  O2_16
REMARK                            x       y       z     vdW  Elec       q    Type
REMARK                         _______ _______ _______ _____ _____    ______ ____
ROOT
ATOM      1  N1  UNL     1     161.583 143.004 173.022  0.00  0.00    +0.000 N 
ATOM      2  C1  UNL     1     161.439 143.818 171.872  0.00  0.00    +0.000 A 
ATOM      3  N2  UNL     1     162.354 143.806 170.885  0.00  0.00    +0.000 NA
ATOM      4  C2  UNL     1     162.253 144.565 169.776  0.00  0.00    +0.000 A 
ATOM      5  C3  UNL     1     161.178 145.402 169.612  0.00  0.00    +0.000 A 
ATOM      6  N3  UNL     1     161.333 146.032 168.430  0.00  0.00    +0.000 NA
ATOM      7  C4  UNL     1     162.476 145.617 167.841  0.00  0.00    +0.000 A 
ATOM      8  N4  UNL     1     163.026 144.720 168.678  0.00  0.00    +0.000 N 
ATOM      9  C11 UNL     1     160.238 145.417 170.622  0.00  0.00    +0.000 A 
ATOM     10  O3  UNL     1     159.244 146.169 170.503  0.00  0.00    +0.000 OA
ATOM     11  N5  UNL     1     160.369 144.647 171.714  0.00  0.00    +0.000 N 
ATOM     12  H1  UNL     1     160.881 142.298 173.271  0.00  0.00    +0.000 HD
ATOM     13  H2  UNL     1     162.418 143.133 173.617  0.00  0.00    +0.000 HD
ATOM     14  H13 UNL     1     159.681 144.631 172.496  0.00  0.00    +0.000 HD
ENDROOT
BRANCH   8  15
ATOM     15  C5  UNL     1     164.239 143.993 168.513  0.00  0.00    +0.000 C 
ATOM     16  C6  UNL     1     164.159 142.736 168.110  0.00  0.00    +0.000 C 
ATOM     17  C7  UNL     1     164.990 141.493 167.761  0.00  0.00    +0.000 C 
ATOM     18  C8  UNL     1     163.523 141.490 167.682  0.00  0.00    +0.000 C 
BRANCH  18  19
ATOM     19  C9  UNL     1     162.927 141.409 166.283  0.00  0.00    +0.000 C 
BRANCH  19  20
ATOM     20  O1  UNL     1     161.713 140.731 166.391  0.00  0.00    +0.000 OA
ATOM     21  H9  UNL     1     161.244 140.693 165.518  0.00  0.00    +0.000 HD
ENDBRANCH  19  20
ENDBRANCH  18  19
BRANCH  18  22
ATOM     22  C10 UNL     1     162.802 140.719 168.766  0.00  0.00    +0.000 C 
BRANCH  22  23
ATOM     23  O2  UNL     1     161.661 141.396 169.130  0.00  0.00    +0.000 OA
ATOM     24  H12 UNL     1     161.599 142.235 168.588  0.00  0.00    +0.000 HD
ENDBRANCH  22  23
ENDBRANCH  18  22
ENDBRANCH   8  15
TORSDOF 5
ENDMDL
MODEL 8
REMARK VINA RESULT:      -4.8     10.315     12.742
REMARK  Name = ./3D_structures\o62_MMV1782210_3D.pdb
REMARK  5 active torsions:
REMARK  status: ('A' for Active; 'I' for Inactive)
REMARK    1  A    between atoms: N4_8  and  C5_9
REMARK    2  A    between atoms: C8_12  and  C9_13
REMARK    3  A    between atoms: C8_12  and  C10_15
REMARK    4  A    between atoms: C9_13  and  O1_14
REMARK    5  A    between atoms: C10_15  and  O2_16
REMARK                            x       y       z     vdW  Elec       q    Type
REMARK                         _______ _______ _______ _____ _____    ______ ____
ROOT
ATOM      1  N1  UNL     1     153.496 160.276 169.542  0.00  0.00    +0.000 N 
ATOM      2  C1  UNL     1     154.777 159.733 169.810  0.00  0.00    +0.000 A 
ATOM      3  N2  UNL     1     155.749 159.740 168.881  0.00  0.00    +0.000 NA
ATOM      4  C2  UNL     1     156.980 159.233 169.097  0.00  0.00    +0.000 A 
ATOM      5  C3  UNL     1     157.289 158.675 170.311  0.00  0.00    +0.000 A 
ATOM      6  N3  UNL     1     158.569 158.254 170.249  0.00  0.00    +0.000 NA
ATOM      7  C4  UNL     1     159.078 158.531 169.028  0.00  0.00    +0.000 A 
ATOM      8  N4  UNL     1     158.092 159.130 168.337  0.00  0.00    +0.000 N 
ATOM      9  C11 UNL     1     156.293 158.665 171.266  0.00  0.00    +0.000 A 
ATOM     10  O3  UNL     1     156.544 158.163 172.386  0.00  0.00    +0.000 OA
ATOM     11  N5  UNL     1     155.078 159.180 171.019  0.00  0.00    +0.000 N 
ATOM     12  H1  UNL     1     153.116 161.051 170.096  0.00  0.00    +0.000 HD
ATOM     13  H2  UNL     1     152.941 159.874 168.769  0.00  0.00    +0.000 HD
ATOM     14  H13 UNL     1     154.303 159.190 171.713  0.00  0.00    +0.000 HD
ENDROOT
BRANCH   8  15
ATOM     15  C5  UNL     1     158.128 159.615 166.998  0.00  0.00    +0.000 C 
ATOM     16  C6  UNL     1     157.406 158.980 166.089  0.00  0.00    +0.000 C 
ATOM     17  C7  UNL     1     157.021 158.968 164.603  0.00  0.00    +0.000 C 
ATOM     18  C8  UNL     1     156.492 157.975 165.548  0.00  0.00    +0.000 C 
BRANCH  18  19
ATOM     19  C9  UNL     1     155.007 158.080 165.869  0.00  0.00    +0.000 C 
BRANCH  19  20
ATOM     20  O1  UNL     1     154.786 157.351 167.038  0.00  0.00    +0.000 OA
ATOM     21  H9  UNL     1     155.634 156.974 167.391  0.00  0.00    +0.000 HD
ENDBRANCH  19  20
ENDBRANCH  18  19
BRANCH  18  22
ATOM     22  C10 UNL     1     157.057 156.576 165.426  0.00  0.00    +0.000 C 
BRANCH  22  23
ATOM     23  O2  UNL     1     157.523 156.160 166.652  0.00  0.00    +0.000 OA
ATOM     24  H12 UNL     1     157.561 156.950 167.266  0.00  0.00    +0.000 HD
ENDBRANCH  22  23
ENDBRANCH  18  22
ENDBRANCH   8  15
TORSDOF 5
ENDMDL
MODEL 9
REMARK VINA RESULT:      -4.8     22.632     25.290
REMARK  Name = ./3D_structures\o62_MMV1782210_3D.pdb
REMARK  5 active torsions:
REMARK  status: ('A' for Active; 'I' for Inactive)
REMARK    1  A    between atoms: N4_8  and  C5_9
REMARK    2  A    between atoms: C8_12  and  C9_13
REMARK    3  A    between atoms: C8_12  and  C10_15
REMARK    4  A    between atoms: C9_13  and  O1_14
REMARK    5  A    between atoms: C10_15  and  O2_16
REMARK                            x       y       z     vdW  Elec       q    Type
REMARK                         _______ _______ _______ _____ _____    ______ ____
ROOT
ATOM      1  N1  UNL     1     161.857 148.478 165.692  0.00  0.00    +0.000 N 
ATOM      2  C1  UNL     1     161.972 148.369 167.100  0.00  0.00    +0.000 A 
ATOM      3  N2  UNL     1     161.625 147.242 167.746  0.00  0.00    +0.000 NA
ATOM      4  C2  UNL     1     161.719 147.100 169.084  0.00  0.00    +0.000 A 
ATOM      5  C3  UNL     1     162.188 148.134 169.853  0.00  0.00    +0.000 A 
ATOM      6  N3  UNL     1     162.176 147.722 171.137  0.00  0.00    +0.000 NA
ATOM      7  C4  UNL     1     161.713 146.454 171.201  0.00  0.00    +0.000 A 
ATOM      8  N4  UNL     1     161.438 146.089 169.936  0.00  0.00    +0.000 N 
ATOM      9  C11 UNL     1     162.545 149.292 169.193  0.00  0.00    +0.000 A 
ATOM     10  O3  UNL     1     162.978 150.255 169.866  0.00  0.00    +0.000 OA
ATOM     11  N5  UNL     1     162.439 149.400 167.858  0.00  0.00    +0.000 N 
ATOM     12  H1  UNL     1     162.673 148.666 165.100  0.00  0.00    +0.000 HD
ATOM     13  H2  UNL     1     160.924 148.363 165.263  0.00  0.00    +0.000 HD
ATOM     14  H13 UNL     1     162.698 150.257 167.326  0.00  0.00    +0.000 HD
ENDROOT
BRANCH   8  15
ATOM     15  C5  UNL     1     160.925 144.845 169.473  0.00  0.00    +0.000 C 
ATOM     16  C6  UNL     1     161.709 143.782 169.554  0.00  0.00    +0.000 C 
ATOM     17  C7  UNL     1     161.785 142.276 169.266  0.00  0.00    +0.000 C 
ATOM     18  C8  UNL     1     162.912 143.008 169.859  0.00  0.00    +0.000 C 
BRANCH  18  19
ATOM     19  C9  UNL     1     163.231 142.683 171.313  0.00  0.00    +0.000 C 
BRANCH  19  20
ATOM     20  O1  UNL     1     163.530 141.322 171.374  0.00  0.00    +0.000 OA
ATOM     21  H9  UNL     1     164.137 141.055 170.636  0.00  0.00    +0.000 HD
ENDBRANCH  19  20
ENDBRANCH  18  19
BRANCH  18  22
ATOM     22  C10 UNL     1     164.096 143.255 168.950  0.00  0.00    +0.000 C 
BRANCH  22  23
ATOM     23  O2  UNL     1     165.159 142.486 169.360  0.00  0.00    +0.000 OA
ATOM     24  H12 UNL     1     166.009 142.954 169.113  0.00  0.00    +0.000 HD
ENDBRANCH  22  23
ENDBRANCH  18  22
ENDBRANCH   8  15
TORSDOF 5
ENDMDL
