MODEL 1
REMARK VINA RESULT:      -6.5      0.000      0.000
REMARK  Name = ./3D_structures\o64_MMV1006203_3D.pdb
REMARK  1 active torsions:
REMARK  status: ('A' for Active; 'I' for Inactive)
REMARK    1  A    between atoms: C3_4  and  C4_5
REMARK                            x       y       z     vdW  Elec       q    Type
REMARK                         _______ _______ _______ _____ _____    ______ ____
ROOT
ATOM      1  O1  UNL     1     154.868 157.210 167.345  0.00  0.00    +0.000 OA
ATOM      2  C1  UNL     1     155.673 157.764 168.181  0.00  0.00    +0.000 C 
ATOM      3  C2  UNL     1     155.180 158.319 169.427  0.00  0.00    +0.000 C 
ATOM      4  C3  UNL     1     155.892 158.907 170.357  0.00  0.00    +0.000 C 
ATOM      5  S1  UNL     1     157.622 159.064 170.122  0.00  0.00    +0.000 S 
ATOM      6  O2  UNL     1     158.374 158.306 171.185  0.00  0.00    +0.000 OA
ATOM      7  O3  UNL     1     158.019 160.526 170.121  0.00  0.00    +0.000 OA
ATOM      8  C10 UNL     1     158.017 158.348 168.591  0.00  0.00    +0.000 A 
ATOM      9  C11 UNL     1     159.365 158.373 168.216  0.00  0.00    +0.000 A 
ATOM     10  C12 UNL     1     159.776 157.830 167.020  0.00  0.00    +0.000 A 
ATOM     11  C13 UNL     1     158.800 157.270 166.228  0.00  0.00    +0.000 A 
ATOM     12  C14 UNL     1     157.482 157.243 166.591  0.00  0.00    +0.000 A 
ATOM     13  C15 UNL     1     157.051 157.790 167.799  0.00  0.00    +0.000 A 
ENDROOT
BRANCH   4  14
ATOM     14  C4  UNL     1     155.276 159.434 171.587  0.00  0.00    +0.000 A 
ATOM     15  C5  UNL     1     153.960 159.845 171.522  0.00  0.00    +0.000 A 
ATOM     16  C6  UNL     1     153.311 160.356 172.651  0.00  0.00    +0.000 A 
ATOM     17  C7  UNL     1     154.004 160.446 173.837  0.00  0.00    +0.000 A 
ATOM     18  C8  UNL     1     155.304 160.045 173.923  0.00  0.00    +0.000 A 
ATOM     19  C9  UNL     1     155.934 159.537 172.782  0.00  0.00    +0.000 A 
ENDBRANCH   4  14
TORSDOF 1
ENDMDL
MODEL 2
REMARK VINA RESULT:      -6.3      1.874      3.443
REMARK  Name = ./3D_structures\o64_MMV1006203_3D.pdb
REMARK  1 active torsions:
REMARK  status: ('A' for Active; 'I' for Inactive)
REMARK    1  A    between atoms: C3_4  and  C4_5
REMARK                            x       y       z     vdW  Elec       q    Type
REMARK                         _______ _______ _______ _____ _____    ______ ____
ROOT
ATOM      1  O1  UNL     1     158.075 158.274 171.390  0.00  0.00    +0.000 OA
ATOM      2  C1  UNL     1     157.248 158.354 170.407  0.00  0.00    +0.000 C 
ATOM      3  C2  UNL     1     155.820 158.433 170.646  0.00  0.00    +0.000 C 
ATOM      4  C3  UNL     1     154.879 158.517 169.738  0.00  0.00    +0.000 C 
ATOM      5  S1  UNL     1     155.339 158.542 168.046  0.00  0.00    +0.000 S 
ATOM      6  O2  UNL     1     154.930 159.842 167.404  0.00  0.00    +0.000 OA
ATOM      7  O3  UNL     1     154.723 157.365 167.319  0.00  0.00    +0.000 OA
ATOM      8  C10 UNL     1     157.070 158.441 167.965  0.00  0.00    +0.000 A 
ATOM      9  C11 UNL     1     157.639 158.447 166.687  0.00  0.00    +0.000 A 
ATOM     10  C12 UNL     1     159.003 158.371 166.521  0.00  0.00    +0.000 A 
ATOM     11  C13 UNL     1     159.762 158.290 167.666  0.00  0.00    +0.000 A 
ATOM     12  C14 UNL     1     159.210 158.284 168.917  0.00  0.00    +0.000 A 
ATOM     13  C15 UNL     1     157.829 158.361 169.101  0.00  0.00    +0.000 A 
ENDROOT
BRANCH   4  14
ATOM     14  C4  UNL     1     153.454 158.591 170.103  0.00  0.00    +0.000 A 
ATOM     15  C5  UNL     1     153.038 159.670 170.857  0.00  0.00    +0.000 A 
ATOM     16  C6  UNL     1     151.699 159.803 171.240  0.00  0.00    +0.000 A 
ATOM     17  C7  UNL     1     150.794 158.841 170.855  0.00  0.00    +0.000 A 
ATOM     18  C8  UNL     1     151.183 157.767 170.111  0.00  0.00    +0.000 A 
ATOM     19  C9  UNL     1     152.527 157.653 169.739  0.00  0.00    +0.000 A 
ENDBRANCH   4  14
TORSDOF 1
ENDMDL
MODEL 3
REMARK VINA RESULT:      -6.3      1.817      2.962
REMARK  Name = ./3D_structures\o64_MMV1006203_3D.pdb
REMARK  1 active torsions:
REMARK  status: ('A' for Active; 'I' for Inactive)
REMARK    1  A    between atoms: C3_4  and  C4_5
REMARK                            x       y       z     vdW  Elec       q    Type
REMARK                         _______ _______ _______ _____ _____    ______ ____
ROOT
ATOM      1  O1  UNL     1     160.128 158.362 168.370  0.00  0.00    +0.000 OA
ATOM      2  C1  UNL     1     158.865 158.407 168.607  0.00  0.00    +0.000 C 
ATOM      3  C2  UNL     1     158.360 159.012 169.825  0.00  0.00    +0.000 C 
ATOM      4  C3  UNL     1     157.104 159.120 170.182  0.00  0.00    +0.000 C 
ATOM      5  S1  UNL     1     155.866 158.487 169.115  0.00  0.00    +0.000 S 
ATOM      6  O2  UNL     1     154.965 159.593 168.630  0.00  0.00    +0.000 OA
ATOM      7  O3  UNL     1     155.066 157.412 169.822  0.00  0.00    +0.000 OA
ATOM      8  C10 UNL     1     156.658 157.810 167.726  0.00  0.00    +0.000 A 
ATOM      9  C11 UNL     1     155.832 157.248 166.746  0.00  0.00    +0.000 A 
ATOM     10  C12 UNL     1     156.368 156.688 165.608  0.00  0.00    +0.000 A 
ATOM     11  C13 UNL     1     157.738 156.712 165.493  0.00  0.00    +0.000 A 
ATOM     12  C14 UNL     1     158.548 157.261 166.448  0.00  0.00    +0.000 A 
ATOM     13  C15 UNL     1     158.020 157.832 167.606  0.00  0.00    +0.000 A 
ENDROOT
BRANCH   4  14
ATOM     14  C4  UNL     1     156.712 159.758 171.450  0.00  0.00    +0.000 A 
ATOM     15  C5  UNL     1     157.143 161.049 171.682  0.00  0.00    +0.000 A 
ATOM     16  C6  UNL     1     156.807 161.715 172.865  0.00  0.00    +0.000 A 
ATOM     17  C7  UNL     1     156.038 161.067 173.804  0.00  0.00    +0.000 A 
ATOM     18  C8  UNL     1     155.603 159.792 173.596  0.00  0.00    +0.000 A 
ATOM     19  C9  UNL     1     155.949 159.143 172.405  0.00  0.00    +0.000 A 
ENDBRANCH   4  14
TORSDOF 1
ENDMDL
MODEL 4
REMARK VINA RESULT:      -6.3      1.382      6.496
REMARK  Name = ./3D_structures\o64_MMV1006203_3D.pdb
REMARK  1 active torsions:
REMARK  status: ('A' for Active; 'I' for Inactive)
REMARK    1  A    between atoms: C3_4  and  C4_5
REMARK                            x       y       z     vdW  Elec       q    Type
REMARK                         _______ _______ _______ _____ _____    ______ ____
ROOT
ATOM      1  O1  UNL     1     158.290 158.345 171.409  0.00  0.00    +0.000 OA
ATOM      2  C1  UNL     1     157.440 158.327 170.444  0.00  0.00    +0.000 C 
ATOM      3  C2  UNL     1     157.798 157.772 169.152  0.00  0.00    +0.000 C 
ATOM      4  C3  UNL     1     157.029 157.694 168.094  0.00  0.00    +0.000 C 
ATOM      5  S1  UNL     1     155.389 158.308 168.196  0.00  0.00    +0.000 S 
ATOM      6  O2  UNL     1     154.393 157.198 167.983  0.00  0.00    +0.000 OA
ATOM      7  O3  UNL     1     155.182 159.418 167.186  0.00  0.00    +0.000 OA
ATOM      8  C10 UNL     1     155.152 158.923 169.801  0.00  0.00    +0.000 A 
ATOM      9  C11 UNL     1     153.892 159.463 170.086  0.00  0.00    +0.000 A 
ATOM     10  C12 UNL     1     153.608 159.975 171.331  0.00  0.00    +0.000 A 
ATOM     11  C13 UNL     1     154.618 159.927 172.265  0.00  0.00    +0.000 A 
ATOM     12  C14 UNL     1     155.850 159.400 171.991  0.00  0.00    +0.000 A 
ATOM     13  C15 UNL     1     156.152 158.878 170.733  0.00  0.00    +0.000 A 
ENDROOT
BRANCH   4  14
ATOM     14  C4  UNL     1     157.507 157.108 166.831  0.00  0.00    +0.000 A 
ATOM     15  C5  UNL     1     158.812 157.356 166.459  0.00  0.00    +0.000 A 
ATOM     16  C6  UNL     1     159.333 156.830 165.272  0.00  0.00    +0.000 A 
ATOM     17  C7  UNL     1     158.524 156.056 164.471  0.00  0.00    +0.000 A 
ATOM     18  C8  UNL     1     157.231 155.798 164.820  0.00  0.00    +0.000 A 
ATOM     19  C9  UNL     1     156.731 156.334 166.011  0.00  0.00    +0.000 A 
ENDBRANCH   4  14
TORSDOF 1
ENDMDL
MODEL 5
REMARK VINA RESULT:      -6.0      2.757      3.030
REMARK  Name = ./3D_structures\o64_MMV1006203_3D.pdb
REMARK  1 active torsions:
REMARK  status: ('A' for Active; 'I' for Inactive)
REMARK    1  A    between atoms: C3_4  and  C4_5
REMARK                            x       y       z     vdW  Elec       q    Type
REMARK                         _______ _______ _______ _____ _____    ______ ____
ROOT
ATOM      1  O1  UNL     1     156.060 156.555 165.950  0.00  0.00    +0.000 OA
ATOM      2  C1  UNL     1     155.940 157.304 166.989  0.00  0.00    +0.000 C 
ATOM      3  C2  UNL     1     154.635 157.574 167.561  0.00  0.00    +0.000 C 
ATOM      4  C3  UNL     1     154.379 158.316 168.610  0.00  0.00    +0.000 C 
ATOM      5  S1  UNL     1     155.715 159.084 169.447  0.00  0.00    +0.000 S 
ATOM      6  O2  UNL     1     155.820 158.573 170.860  0.00  0.00    +0.000 OA
ATOM      7  O3  UNL     1     155.548 160.589 169.429  0.00  0.00    +0.000 OA
ATOM      8  C10 UNL     1     157.178 158.646 168.622  0.00  0.00    +0.000 A 
ATOM      9  C11 UNL     1     158.370 159.165 169.142  0.00  0.00    +0.000 A 
ATOM     10  C12 UNL     1     159.581 158.874 168.557  0.00  0.00    +0.000 A 
ATOM     11  C13 UNL     1     159.554 158.058 167.450  0.00  0.00    +0.000 A 
ATOM     12  C14 UNL     1     158.392 157.549 166.939  0.00  0.00    +0.000 A 
ATOM     13  C15 UNL     1     157.157 157.835 167.521  0.00  0.00    +0.000 A 
ENDROOT
BRANCH   4  14
ATOM     14  C4  UNL     1     153.005 158.517 169.099  0.00  0.00    +0.000 A 
ATOM     15  C5  UNL     1     152.366 159.692 168.758  0.00  0.00    +0.000 A 
ATOM     16  C6  UNL     1     151.059 159.949 169.188  0.00  0.00    +0.000 A 
ATOM     17  C7  UNL     1     150.413 159.013 169.961  0.00  0.00    +0.000 A 
ATOM     18  C8  UNL     1     151.025 157.846 170.310  0.00  0.00    +0.000 A 
ATOM     19  C9  UNL     1     152.332 157.608 169.869  0.00  0.00    +0.000 A 
ENDBRANCH   4  14
TORSDOF 1
ENDMDL
MODEL 6
REMARK VINA RESULT:      -6.0      2.638      6.442
REMARK  Name = ./3D_structures\o64_MMV1006203_3D.pdb
REMARK  1 active torsions:
REMARK  status: ('A' for Active; 'I' for Inactive)
REMARK    1  A    between atoms: C3_4  and  C4_5
REMARK                            x       y       z     vdW  Elec       q    Type
REMARK                         _______ _______ _______ _____ _____    ______ ____
ROOT
ATOM      1  O1  UNL     1     154.300 156.995 167.988  0.00  0.00    +0.000 OA
ATOM      2  C1  UNL     1     155.457 157.505 167.753  0.00  0.00    +0.000 C 
ATOM      3  C2  UNL     1     155.914 157.706 166.391  0.00  0.00    +0.000 C 
ATOM      4  C3  UNL     1     157.064 158.213 166.020  0.00  0.00    +0.000 C 
ATOM      5  S1  UNL     1     158.203 158.716 167.254  0.00  0.00    +0.000 S 
ATOM      6  O2  UNL     1     158.460 160.198 167.168  0.00  0.00    +0.000 OA
ATOM      7  O3  UNL     1     159.495 157.937 167.123  0.00  0.00    +0.000 OA
ATOM      8  C10 UNL     1     157.483 158.399 168.801  0.00  0.00    +0.000 A 
ATOM      9  C11 UNL     1     158.243 158.735 169.927  0.00  0.00    +0.000 A 
ATOM     10  C12 UNL     1     157.756 158.522 171.197  0.00  0.00    +0.000 A 
ATOM     11  C13 UNL     1     156.500 157.968 171.293  0.00  0.00    +0.000 A 
ATOM     12  C14 UNL     1     155.754 157.639 170.196  0.00  0.00    +0.000 A 
ATOM     13  C15 UNL     1     156.234 157.849 168.903  0.00  0.00    +0.000 A 
ENDROOT
BRANCH   4  14
ATOM     14  C4  UNL     1     157.419 158.369 164.599  0.00  0.00    +0.000 A 
ATOM     15  C5  UNL     1     157.130 159.574 163.992  0.00  0.00    +0.000 A 
ATOM     16  C6  UNL     1     157.440 159.791 162.645  0.00  0.00    +0.000 A 
ATOM     17  C7  UNL     1     158.040 158.782 161.925  0.00  0.00    +0.000 A 
ATOM     18  C8  UNL     1     158.333 157.584 162.505  0.00  0.00    +0.000 A 
ATOM     19  C9  UNL     1     158.015 157.388 163.854  0.00  0.00    +0.000 A 
ENDBRANCH   4  14
TORSDOF 1
ENDMDL
MODEL 7
REMARK VINA RESULT:      -6.0      1.159      5.839
REMARK  Name = ./3D_structures\o64_MMV1006203_3D.pdb
REMARK  1 active torsions:
REMARK  status: ('A' for Active; 'I' for Inactive)
REMARK    1  A    between atoms: C3_4  and  C4_5
REMARK                            x       y       z     vdW  Elec       q    Type
REMARK                         _______ _______ _______ _____ _____    ______ ____
ROOT
ATOM      1  O1  UNL     1     153.339 158.767 169.794  0.00  0.00    +0.000 OA
ATOM      2  C1  UNL     1     154.617 158.871 169.894  0.00  0.00    +0.000 C 
ATOM      3  C2  UNL     1     155.486 158.330 168.867  0.00  0.00    +0.000 C 
ATOM      4  C3  UNL     1     156.796 158.370 168.850  0.00  0.00    +0.000 C 
ATOM      5  S1  UNL     1     157.633 159.147 170.180  0.00  0.00    +0.000 S 
ATOM      6  O2  UNL     1     158.414 160.340 169.693  0.00  0.00    +0.000 OA
ATOM      7  O3  UNL     1     158.544 158.156 170.875  0.00  0.00    +0.000 OA
ATOM      8  C10 UNL     1     156.436 159.725 171.296  0.00  0.00    +0.000 A 
ATOM      9  C11 UNL     1     156.908 160.382 172.437  0.00  0.00    +0.000 A 
ATOM     10  C12 UNL     1     156.035 160.876 173.380  0.00  0.00    +0.000 A 
ATOM     11  C13 UNL     1     154.693 160.690 173.138  0.00  0.00    +0.000 A 
ATOM     12  C14 UNL     1     154.228 160.049 172.023  0.00  0.00    +0.000 A 
ATOM     13  C15 UNL     1     155.100 159.542 171.060  0.00  0.00    +0.000 A 
ENDROOT
BRANCH   4  14
ATOM     14  C4  UNL     1     157.575 157.783 167.747  0.00  0.00    +0.000 A 
ATOM     15  C5  UNL     1     156.999 156.753 167.030  0.00  0.00    +0.000 A 
ATOM     16  C6  UNL     1     157.682 156.149 165.969  0.00  0.00    +0.000 A 
ATOM     17  C7  UNL     1     158.943 156.594 165.644  0.00  0.00    +0.000 A 
ATOM     18  C8  UNL     1     159.530 157.610 166.339  0.00  0.00    +0.000 A 
ATOM     19  C9  UNL     1     158.830 158.200 167.396  0.00  0.00    +0.000 A 
ENDBRANCH   4  14
TORSDOF 1
ENDMDL
MODEL 8
REMARK VINA RESULT:      -5.9      2.001      3.213
REMARK  Name = ./3D_structures\o64_MMV1006203_3D.pdb
REMARK  1 active torsions:
REMARK  status: ('A' for Active; 'I' for Inactive)
REMARK    1  A    between atoms: C3_4  and  C4_5
REMARK                            x       y       z     vdW  Elec       q    Type
REMARK                         _______ _______ _______ _____ _____    ______ ____
ROOT
ATOM      1  O1  UNL     1     160.732 158.488 167.609  0.00  0.00    +0.000 OA
ATOM      2  C1  UNL     1     159.484 158.342 167.884  0.00  0.00    +0.000 C 
ATOM      3  C2  UNL     1     158.913 158.945 169.073  0.00  0.00    +0.000 C 
ATOM      4  C3  UNL     1     157.664 158.873 169.464  0.00  0.00    +0.000 C 
ATOM      5  S1  UNL     1     156.526 157.966 168.487  0.00  0.00    +0.000 S 
ATOM      6  O2  UNL     1     155.443 158.869 167.957  0.00  0.00    +0.000 OA
ATOM      7  O3  UNL     1     155.932 156.830 169.294  0.00  0.00    +0.000 OA
ATOM      8  C10 UNL     1     157.388 157.327 167.123  0.00  0.00    +0.000 A 
ATOM      9  C11 UNL     1     156.647 156.564 166.214  0.00  0.00    +0.000 A 
ATOM     10  C12 UNL     1     157.243 156.016 165.101  0.00  0.00    +0.000 A 
ATOM     11  C13 UNL     1     158.587 156.257 164.937  0.00  0.00    +0.000 A 
ATOM     12  C14 UNL     1     159.315 157.001 165.823  0.00  0.00    +0.000 A 
ATOM     13  C15 UNL     1     158.725 157.563 166.955  0.00  0.00    +0.000 A 
ENDROOT
BRANCH   4  14
ATOM     14  C4  UNL     1     157.200 159.530 170.697  0.00  0.00    +0.000 A 
ATOM     15  C5  UNL     1     156.530 158.759 171.625  0.00  0.00    +0.000 A 
ATOM     16  C6  UNL     1     156.061 159.318 172.818  0.00  0.00    +0.000 A 
ATOM     17  C7  UNL     1     156.275 160.656 173.060  0.00  0.00    +0.000 A 
ATOM     18  C8  UNL     1     156.934 161.436 172.157  0.00  0.00    +0.000 A 
ATOM     19  C9  UNL     1     157.395 160.857 170.970  0.00  0.00    +0.000 A 
ENDBRANCH   4  14
TORSDOF 1
ENDMDL
MODEL 9
REMARK VINA RESULT:      -5.9      1.648      5.972
REMARK  Name = ./3D_structures\o64_MMV1006203_3D.pdb
REMARK  1 active torsions:
REMARK  status: ('A' for Active; 'I' for Inactive)
REMARK    1  A    between atoms: C3_4  and  C4_5
REMARK                            x       y       z     vdW  Elec       q    Type
REMARK                         _______ _______ _______ _____ _____    ______ ____
ROOT
ATOM      1  O1  UNL     1     151.889 159.795 170.082  0.00  0.00    +0.000 OA
ATOM      2  C1  UNL     1     153.132 159.494 170.213  0.00  0.00    +0.000 C 
ATOM      3  C2  UNL     1     153.848 158.821 169.147  0.00  0.00    +0.000 C 
ATOM      4  C3  UNL     1     155.108 158.461 169.156  0.00  0.00    +0.000 C 
ATOM      5  S1  UNL     1     156.073 158.806 170.579  0.00  0.00    +0.000 S 
ATOM      6  O2  UNL     1     157.200 159.748 170.241  0.00  0.00    +0.000 OA
ATOM      7  O3  UNL     1     156.607 157.520 171.174  0.00  0.00    +0.000 OA
ATOM      8  C10 UNL     1     155.052 159.606 171.732  0.00  0.00    +0.000 A 
ATOM      9  C11 UNL     1     155.642 159.968 172.948  0.00  0.00    +0.000 A 
ATOM     10  C12 UNL     1     154.913 160.607 173.925  0.00  0.00    +0.000 A 
ATOM     11  C13 UNL     1     153.591 160.864 173.641  0.00  0.00    +0.000 A 
ATOM     12  C14 UNL     1     153.011 160.512 172.455  0.00  0.00    +0.000 A 
ATOM     13  C15 UNL     1     153.737 159.864 171.456  0.00  0.00    +0.000 A 
ENDROOT
BRANCH   4  14
ATOM     14  C4  UNL     1     155.728 157.780 168.008  0.00  0.00    +0.000 A 
ATOM     15  C5  UNL     1     155.072 157.838 166.795  0.00  0.00    +0.000 A 
ATOM     16  C6  UNL     1     155.603 157.213 165.661  0.00  0.00    +0.000 A 
ATOM     17  C7  UNL     1     156.795 156.533 165.768  0.00  0.00    +0.000 A 
ATOM     18  C8  UNL     1     157.459 156.463 166.957  0.00  0.00    +0.000 A 
ATOM     19  C9  UNL     1     156.911 157.096 168.078  0.00  0.00    +0.000 A 
ENDBRANCH   4  14
TORSDOF 1
ENDMDL
