MODEL 1
REMARK VINA RESULT:      -6.1      0.000      0.000
REMARK  Name = ./3D_structures\o67_MMV1782355_3D.pdb
REMARK  2 active torsions:
REMARK  status: ('A' for Active; 'I' for Inactive)
REMARK    1  A    between atoms: C3_5  and  C4_6
REMARK    2  A    between atoms: C4_6  and  C5_7
REMARK                            x       y       z     vdW  Elec       q    Type
REMARK                         _______ _______ _______ _____ _____    ______ ____
ROOT
ATOM      1  N1  UNL     1     145.062 169.031 165.518  0.00  0.00    +0.000 N 
ATOM      2  C1  UNL     1     145.078 167.611 165.701  0.00  0.00    +0.000 A 
ATOM      3  N2  UNL     1     146.217 166.975 166.012  0.00  0.00    +0.000 NA
ATOM      4  C2  UNL     1     146.178 165.644 166.179  0.00  0.00    +0.000 A 
ATOM      5  C3  UNL     1     147.170 164.734 166.503  0.00  0.00    +0.000 A 
ATOM      6  C10 UNL     1     146.554 163.504 166.543  0.00  0.00    +0.000 A 
ATOM      7  N4  UNL     1     145.244 163.634 166.260  0.00  0.00    +0.000 N 
ATOM      8  C11 UNL     1     144.987 164.949 166.030  0.00  0.00    +0.000 A 
ATOM      9  C12 UNL     1     143.841 165.633 165.710  0.00  0.00    +0.000 A 
ATOM     10  O1  UNL     1     142.774 165.007 165.577  0.00  0.00    +0.000 OA
ATOM     11  N5  UNL     1     143.909 166.964 165.550  0.00  0.00    +0.000 N 
ATOM     12  H1  UNL     1     144.700 169.390 164.614  0.00  0.00    +0.000 HD
ATOM     13  H2  UNL     1     145.413 169.599 166.304  0.00  0.00    +0.000 HD
ATOM     14  H10 UNL     1     144.514 162.898 166.209  0.00  0.00    +0.000 HD
ATOM     15  H11 UNL     1     143.034 167.471 165.306  0.00  0.00    +0.000 HD
ENDROOT
BRANCH   5  16
ATOM     16  C4  UNL     1     148.620 165.013 166.747  0.00  0.00    +0.000 C 
BRANCH  16  17
ATOM     17  C5  UNL     1     148.858 165.384 168.166  0.00  0.00    +0.000 A 
ATOM     18  C6  UNL     1     149.923 166.184 168.519  0.00  0.00    +0.000 A 
ATOM     19  C7  UNL     1     150.146 166.529 169.856  0.00  0.00    +0.000 A 
ATOM     20  C8  UNL     1     149.298 166.070 170.826  0.00  0.00    +0.000 A 
ATOM     21  N3  UNL     1     148.268 165.293 170.465  0.00  0.00    +0.000 NA
ATOM     22  C9  UNL     1     148.029 164.943 169.179  0.00  0.00    +0.000 A 
ENDBRANCH  16  17
ENDBRANCH   5  16
TORSDOF 2
ENDMDL
MODEL 2
REMARK VINA RESULT:      -6.0      1.899      2.638
REMARK  Name = ./3D_structures\o67_MMV1782355_3D.pdb
REMARK  2 active torsions:
REMARK  status: ('A' for Active; 'I' for Inactive)
REMARK    1  A    between atoms: C3_5  and  C4_6
REMARK    2  A    between atoms: C4_6  and  C5_7
REMARK                            x       y       z     vdW  Elec       q    Type
REMARK                         _______ _______ _______ _____ _____    ______ ____
ROOT
ATOM      1  N1  UNL     1     144.946 168.818 165.579  0.00  0.00    +0.000 N 
ATOM      2  C1  UNL     1     145.056 167.410 165.817  0.00  0.00    +0.000 A 
ATOM      3  N2  UNL     1     146.145 166.901 166.413  0.00  0.00    +0.000 NA
ATOM      4  C2  UNL     1     146.197 165.576 166.619  0.00  0.00    +0.000 A 
ATOM      5  C3  UNL     1     147.167 164.778 167.203  0.00  0.00    +0.000 A 
ATOM      6  C10 UNL     1     146.681 163.492 167.147  0.00  0.00    +0.000 A 
ATOM      7  N4  UNL     1     145.470 163.480 166.558  0.00  0.00    +0.000 N 
ATOM      8  C11 UNL     1     145.149 164.758 166.222  0.00  0.00    +0.000 A 
ATOM      9  C12 UNL     1     144.052 165.314 165.614  0.00  0.00    +0.000 A 
ATOM     10  O1  UNL     1     143.112 164.578 165.259  0.00  0.00    +0.000 OA
ATOM     11  N5  UNL     1     144.026 166.642 165.422  0.00  0.00    +0.000 N 
ATOM     12  H1  UNL     1     144.777 169.122 164.602  0.00  0.00    +0.000 HD
ATOM     13  H2  UNL     1     145.043 169.431 166.402  0.00  0.00    +0.000 HD
ATOM     14  H10 UNL     1     144.849 162.672 166.367  0.00  0.00    +0.000 HD
ATOM     15  H11 UNL     1     143.189 167.051 164.960  0.00  0.00    +0.000 HD
ENDROOT
BRANCH   5  16
ATOM     16  C4  UNL     1     148.484 165.211 167.770  0.00  0.00    +0.000 C 
BRANCH  16  17
ATOM     17  C5  UNL     1     149.592 164.905 166.828  0.00  0.00    +0.000 A 
ATOM     18  C6  UNL     1     149.915 165.774 165.810  0.00  0.00    +0.000 A 
ATOM     19  C7  UNL     1     150.957 165.482 164.923  0.00  0.00    +0.000 A 
ATOM     20  C8  UNL     1     151.665 164.320 165.067  0.00  0.00    +0.000 A 
ATOM     21  N3  UNL     1     151.336 163.486 166.063  0.00  0.00    +0.000 NA
ATOM     22  C9  UNL     1     150.333 163.744 166.935  0.00  0.00    +0.000 A 
ENDBRANCH  16  17
ENDBRANCH   5  16
TORSDOF 2
ENDMDL
MODEL 3
REMARK VINA RESULT:      -5.5     10.416     12.643
REMARK  Name = ./3D_structures\o67_MMV1782355_3D.pdb
REMARK  2 active torsions:
REMARK  status: ('A' for Active; 'I' for Inactive)
REMARK    1  A    between atoms: C3_5  and  C4_6
REMARK    2  A    between atoms: C4_6  and  C5_7
REMARK                            x       y       z     vdW  Elec       q    Type
REMARK                         _______ _______ _______ _____ _____    ______ ____
ROOT
ATOM      1  N1  UNL     1     159.636 159.468 168.748  0.00  0.00    +0.000 N 
ATOM      2  C1  UNL     1     158.358 158.902 169.055  0.00  0.00    +0.000 A 
ATOM      3  N2  UNL     1     157.471 158.647 168.081  0.00  0.00    +0.000 NA
ATOM      4  C2  UNL     1     156.289 158.111 168.420  0.00  0.00    +0.000 A 
ATOM      5  C3  UNL     1     155.198 157.740 167.651  0.00  0.00    +0.000 A 
ATOM      6  C10 UNL     1     154.267 157.241 168.533  0.00  0.00    +0.000 A 
ATOM      7  N4  UNL     1     154.746 157.295 169.790  0.00  0.00    +0.000 N 
ATOM      8  C11 UNL     1     155.996 157.830 169.746  0.00  0.00    +0.000 A 
ATOM      9  C12 UNL     1     156.926 158.104 170.716  0.00  0.00    +0.000 A 
ATOM     10  O1  UNL     1     156.661 157.851 171.906  0.00  0.00    +0.000 OA
ATOM     11  N5  UNL     1     158.101 158.640 170.348  0.00  0.00    +0.000 N 
ATOM     12  H1  UNL     1     159.893 160.349 169.230  0.00  0.00    +0.000 HD
ATOM     13  H2  UNL     1     160.213 158.953 168.066  0.00  0.00    +0.000 HD
ATOM     14  H10 UNL     1     154.289 156.998 170.672  0.00  0.00    +0.000 HD
ATOM     15  H11 UNL     1     158.798 158.844 171.093  0.00  0.00    +0.000 HD
ENDROOT
BRANCH   5  16
ATOM     16  C4  UNL     1     155.044 157.866 166.167  0.00  0.00    +0.000 C 
BRANCH  16  17
ATOM     17  C5  UNL     1     154.752 159.271 165.780  0.00  0.00    +0.000 A 
ATOM     18  C6  UNL     1     153.504 159.816 165.985  0.00  0.00    +0.000 A 
ATOM     19  C7  UNL     1     153.232 161.138 165.617  0.00  0.00    +0.000 A 
ATOM     20  C8  UNL     1     154.215 161.901 165.048  0.00  0.00    +0.000 A 
ATOM     21  N3  UNL     1     155.423 161.354 164.857  0.00  0.00    +0.000 NA
ATOM     22  C9  UNL     1     155.713 160.077 165.203  0.00  0.00    +0.000 A 
ENDBRANCH  16  17
ENDBRANCH   5  16
TORSDOF 2
ENDMDL
MODEL 4
REMARK VINA RESULT:      -5.4     11.057     13.107
REMARK  Name = ./3D_structures\o67_MMV1782355_3D.pdb
REMARK  2 active torsions:
REMARK  status: ('A' for Active; 'I' for Inactive)
REMARK    1  A    between atoms: C3_5  and  C4_6
REMARK    2  A    between atoms: C4_6  and  C5_7
REMARK                            x       y       z     vdW  Elec       q    Type
REMARK                         _______ _______ _______ _____ _____    ______ ____
ROOT
ATOM      1  N1  UNL     1     160.102 158.910 166.990  0.00  0.00    +0.000 N 
ATOM      2  C1  UNL     1     158.899 158.341 167.517  0.00  0.00    +0.000 A 
ATOM      3  N2  UNL     1     158.541 158.560 168.791  0.00  0.00    +0.000 NA
ATOM      4  C2  UNL     1     157.400 158.009 169.235  0.00  0.00    +0.000 A 
ATOM      5  C3  UNL     1     156.781 158.061 170.473  0.00  0.00    +0.000 A 
ATOM      6  C10 UNL     1     155.633 157.312 170.352  0.00  0.00    +0.000 A 
ATOM      7  N4  UNL     1     155.535 156.815 169.104  0.00  0.00    +0.000 N 
ATOM      8  C11 UNL     1     156.618 157.232 168.394  0.00  0.00    +0.000 A 
ATOM      9  C12 UNL     1     157.017 157.028 167.098  0.00  0.00    +0.000 A 
ATOM     10  O1  UNL     1     156.312 156.330 166.345  0.00  0.00    +0.000 OA
ATOM     11  N5  UNL     1     158.161 157.592 166.680  0.00  0.00    +0.000 N 
ATOM     12  H1  UNL     1     160.793 158.258 166.573  0.00  0.00    +0.000 HD
ATOM     13  H2  UNL     1     160.195 159.934 167.063  0.00  0.00    +0.000 HD
ATOM     14  H10 UNL     1     154.792 156.214 168.701  0.00  0.00    +0.000 HD
ATOM     15  H11 UNL     1     158.453 157.429 165.695  0.00  0.00    +0.000 HD
ENDROOT
BRANCH   5  16
ATOM     16  C4  UNL     1     157.258 158.769 171.703  0.00  0.00    +0.000 C 
BRANCH  16  17
ATOM     17  C5  UNL     1     156.242 159.744 172.181  0.00  0.00    +0.000 A 
ATOM     18  C6  UNL     1     155.611 159.569 173.393  0.00  0.00    +0.000 A 
ATOM     19  C7  UNL     1     154.653 160.486 173.839  0.00  0.00    +0.000 A 
ATOM     20  C8  UNL     1     154.338 161.569 173.065  0.00  0.00    +0.000 A 
ATOM     21  N3  UNL     1     154.962 161.723 171.889  0.00  0.00    +0.000 NA
ATOM     22  C9  UNL     1     155.893 160.851 171.434  0.00  0.00    +0.000 A 
ENDBRANCH  16  17
ENDBRANCH   5  16
TORSDOF 2
ENDMDL
MODEL 5
REMARK VINA RESULT:      -5.4     11.583     13.433
REMARK  Name = ./3D_structures\o67_MMV1782355_3D.pdb
REMARK  2 active torsions:
REMARK  status: ('A' for Active; 'I' for Inactive)
REMARK    1  A    between atoms: C3_5  and  C4_6
REMARK    2  A    between atoms: C4_6  and  C5_7
REMARK                            x       y       z     vdW  Elec       q    Type
REMARK                         _______ _______ _______ _____ _____    ______ ____
ROOT
ATOM      1  N1  UNL     1     145.211 150.775 167.850  0.00  0.00    +0.000 N 
ATOM      2  C1  UNL     1     146.609 151.079 167.812  0.00  0.00    +0.000 A 
ATOM      3  N2  UNL     1     147.197 151.724 168.831  0.00  0.00    +0.000 NA
ATOM      4  C2  UNL     1     148.512 151.979 168.750  0.00  0.00    +0.000 A 
ATOM      5  C3  UNL     1     149.376 152.610 169.629  0.00  0.00    +0.000 A 
ATOM      6  C10 UNL     1     150.613 152.583 169.025  0.00  0.00    +0.000 A 
ATOM      7  N4  UNL     1     150.530 151.967 167.830  0.00  0.00    +0.000 N 
ATOM      8  C11 UNL     1     149.240 151.585 167.637  0.00  0.00    +0.000 A 
ATOM      9  C12 UNL     1     148.606 150.929 166.613  0.00  0.00    +0.000 A 
ATOM     10  O1  UNL     1     149.261 150.576 165.615  0.00  0.00    +0.000 OA
ATOM     11  N5  UNL     1     147.290 150.685 166.721  0.00  0.00    +0.000 N 
ATOM     12  H1  UNL     1     144.629 151.119 167.063  0.00  0.00    +0.000 HD
ATOM     13  H2  UNL     1     144.882 150.232 168.662  0.00  0.00    +0.000 HD
ATOM     14  H10 UNL     1     151.282 151.789 167.138  0.00  0.00    +0.000 HD
ATOM     15  H11 UNL     1     146.821 150.187 165.938  0.00  0.00    +0.000 HD
ENDROOT
BRANCH   5  16
ATOM     16  C4  UNL     1     149.046 153.216 170.957  0.00  0.00    +0.000 C 
BRANCH  16  17
ATOM     17  C5  UNL     1     149.142 154.698 170.903  0.00  0.00    +0.000 A 
ATOM     18  C6  UNL     1     148.142 155.451 170.328  0.00  0.00    +0.000 A 
ATOM     19  C7  UNL     1     148.237 156.846 170.276  0.00  0.00    +0.000 A 
ATOM     20  C8  UNL     1     149.334 157.472 170.801  0.00  0.00    +0.000 A 
ATOM     21  N3  UNL     1     150.297 156.723 171.356  0.00  0.00    +0.000 NA
ATOM     22  C9  UNL     1     150.231 155.373 171.420  0.00  0.00    +0.000 A 
ENDBRANCH  16  17
ENDBRANCH   5  16
TORSDOF 2
ENDMDL
MODEL 6
REMARK VINA RESULT:      -5.3      3.129      6.485
REMARK  Name = ./3D_structures\o67_MMV1782355_3D.pdb
REMARK  2 active torsions:
REMARK  status: ('A' for Active; 'I' for Inactive)
REMARK    1  A    between atoms: C3_5  and  C4_6
REMARK    2  A    between atoms: C4_6  and  C5_7
REMARK                            x       y       z     vdW  Elec       q    Type
REMARK                         _______ _______ _______ _____ _____    ______ ____
ROOT
ATOM      1  N1  UNL     1     148.286 164.181 166.823  0.00  0.00    +0.000 N 
ATOM      2  C1  UNL     1     147.080 164.842 166.425  0.00  0.00    +0.000 A 
ATOM      3  N2  UNL     1     145.939 164.154 166.279  0.00  0.00    +0.000 NA
ATOM      4  C2  UNL     1     144.835 164.822 165.910  0.00  0.00    +0.000 A 
ATOM      5  C3  UNL     1     143.537 164.392 165.689  0.00  0.00    +0.000 A 
ATOM      6  C10 UNL     1     142.824 165.514 165.335  0.00  0.00    +0.000 A 
ATOM      7  N4  UNL     1     143.630 166.593 165.333  0.00  0.00    +0.000 N 
ATOM      8  C11 UNL     1     144.880 166.190 165.685  0.00  0.00    +0.000 A 
ATOM      9  C12 UNL     1     146.066 166.861 165.843  0.00  0.00    +0.000 A 
ATOM     10  O1  UNL     1     146.103 168.089 165.641  0.00  0.00    +0.000 OA
ATOM     11  N5  UNL     1     147.154 166.168 166.214  0.00  0.00    +0.000 N 
ATOM     12  H1  UNL     1     149.111 164.283 166.203  0.00  0.00    +0.000 HD
ATOM     13  H2  UNL     1     148.246 163.647 167.705  0.00  0.00    +0.000 HD
ATOM     14  H10 UNL     1     143.396 167.578 165.110  0.00  0.00    +0.000 HD
ATOM     15  H11 UNL     1     148.047 166.688 166.330  0.00  0.00    +0.000 HD
ENDROOT
BRANCH   5  16
ATOM     16  C4  UNL     1     143.008 162.995 165.795  0.00  0.00    +0.000 C 
BRANCH  16  17
ATOM     17  C5  UNL     1     143.158 162.272 164.505  0.00  0.00    +0.000 A 
ATOM     18  C6  UNL     1     142.085 162.111 163.656  0.00  0.00    +0.000 A 
ATOM     19  C7  UNL     1     142.228 161.427 162.444  0.00  0.00    +0.000 A 
ATOM     20  C8  UNL     1     143.447 160.912 162.095  0.00  0.00    +0.000 A 
ATOM     21  N3  UNL     1     144.479 161.078 162.934  0.00  0.00    +0.000 NA
ATOM     22  C9  UNL     1     144.368 161.735 164.112  0.00  0.00    +0.000 A 
ENDBRANCH  16  17
ENDBRANCH   5  16
TORSDOF 2
ENDMDL
MODEL 7
REMARK VINA RESULT:      -5.1      2.677      3.786
REMARK  Name = ./3D_structures\o67_MMV1782355_3D.pdb
REMARK  2 active torsions:
REMARK  status: ('A' for Active; 'I' for Inactive)
REMARK    1  A    between atoms: C3_5  and  C4_6
REMARK    2  A    between atoms: C4_6  and  C5_7
REMARK                            x       y       z     vdW  Elec       q    Type
REMARK                         _______ _______ _______ _____ _____    ______ ____
ROOT
ATOM      1  N1  UNL     1     145.938 166.956 165.352  0.00  0.00    +0.000 N 
ATOM      2  C1  UNL     1     146.316 166.092 166.429  0.00  0.00    +0.000 A 
ATOM      3  N2  UNL     1     147.590 166.035 166.845  0.00  0.00    +0.000 NA
ATOM      4  C2  UNL     1     147.892 165.214 167.862  0.00  0.00    +0.000 A 
ATOM      5  C3  UNL     1     149.093 164.951 168.500  0.00  0.00    +0.000 A 
ATOM      6  C10 UNL     1     148.806 164.025 169.477  0.00  0.00    +0.000 A 
ATOM      7  N4  UNL     1     147.494 163.722 169.456  0.00  0.00    +0.000 N 
ATOM      8  C11 UNL     1     146.907 164.445 168.464  0.00  0.00    +0.000 A 
ATOM      9  C12 UNL     1     145.615 164.528 168.012  0.00  0.00    +0.000 A 
ATOM     10  O1  UNL     1     144.732 163.836 168.554  0.00  0.00    +0.000 OA
ATOM     11  N5  UNL     1     145.341 165.358 166.993  0.00  0.00    +0.000 N 
ATOM     12  H1  UNL     1     145.460 166.522 164.540  0.00  0.00    +0.000 HD
ATOM     13  H2  UNL     1     146.170 167.955 165.463  0.00  0.00    +0.000 HD
ATOM     14  H10 UNL     1     146.969 163.063 170.061  0.00  0.00    +0.000 HD
ATOM     15  H11 UNL     1     144.357 165.412 166.659  0.00  0.00    +0.000 HD
ENDROOT
BRANCH   5  16
ATOM     16  C4  UNL     1     150.437 165.534 168.191  0.00  0.00    +0.000 C 
BRANCH  16  17
ATOM     17  C5  UNL     1     150.962 165.003 166.906  0.00  0.00    +0.000 A 
ATOM     18  C6  UNL     1     151.136 165.830 165.818  0.00  0.00    +0.000 A 
ATOM     19  C7  UNL     1     151.628 165.327 164.609  0.00  0.00    +0.000 A 
ATOM     20  C8  UNL     1     151.941 164.000 164.503  0.00  0.00    +0.000 A 
ATOM     21  N3  UNL     1     151.765 163.210 165.571  0.00  0.00    +0.000 NA
ATOM     22  C9  UNL     1     151.291 163.670 166.753  0.00  0.00    +0.000 A 
ENDBRANCH  16  17
ENDBRANCH   5  16
TORSDOF 2
ENDMDL
MODEL 8
REMARK VINA RESULT:      -5.1      2.335      3.704
REMARK  Name = ./3D_structures\o67_MMV1782355_3D.pdb
REMARK  2 active torsions:
REMARK  status: ('A' for Active; 'I' for Inactive)
REMARK    1  A    between atoms: C3_5  and  C4_6
REMARK    2  A    between atoms: C4_6  and  C5_7
REMARK                            x       y       z     vdW  Elec       q    Type
REMARK                         _______ _______ _______ _____ _____    ______ ____
ROOT
ATOM      1  N1  UNL     1     150.010 165.905 165.245  0.00  0.00    +0.000 N 
ATOM      2  C1  UNL     1     149.012 165.689 166.249  0.00  0.00    +0.000 A 
ATOM      3  N2  UNL     1     149.361 165.329 167.493  0.00  0.00    +0.000 NA
ATOM      4  C2  UNL     1     148.388 165.144 168.399  0.00  0.00    +0.000 A 
ATOM      5  C3  UNL     1     148.440 164.784 169.736  0.00  0.00    +0.000 A 
ATOM      6  C10 UNL     1     147.133 164.752 170.167  0.00  0.00    +0.000 A 
ATOM      7  N4  UNL     1     146.304 165.075 169.157  0.00  0.00    +0.000 N 
ATOM      8  C11 UNL     1     147.057 165.322 168.052  0.00  0.00    +0.000 A 
ATOM      9  C12 UNL     1     146.737 165.689 166.769  0.00  0.00    +0.000 A 
ATOM     10  O1  UNL     1     145.542 165.848 166.460  0.00  0.00    +0.000 OA
ATOM     11  N5  UNL     1     147.731 165.868 165.884  0.00  0.00    +0.000 N 
ATOM     12  H1  UNL     1     149.928 165.357 164.369  0.00  0.00    +0.000 HD
ATOM     13  H2  UNL     1     150.742 166.596 165.468  0.00  0.00    +0.000 HD
ATOM     14  H10 UNL     1     145.269 165.139 169.161  0.00  0.00    +0.000 HD
ATOM     15  H11 UNL     1     147.475 166.146 164.915  0.00  0.00    +0.000 HD
ENDROOT
BRANCH   5  16
ATOM     16  C4  UNL     1     149.656 164.474 170.551  0.00  0.00    +0.000 C 
BRANCH  16  17
ATOM     17  C5  UNL     1     150.172 165.698 171.219  0.00  0.00    +0.000 A 
ATOM     18  C6  UNL     1     151.019 165.608 172.302  0.00  0.00    +0.000 A 
ATOM     19  C7  UNL     1     151.500 166.761 172.931  0.00  0.00    +0.000 A 
ATOM     20  C8  UNL     1     151.127 167.993 172.468  0.00  0.00    +0.000 A 
ATOM     21  N3  UNL     1     150.302 168.061 171.414  0.00  0.00    +0.000 NA
ATOM     22  C9  UNL     1     149.822 166.962 170.787  0.00  0.00    +0.000 A 
ENDBRANCH  16  17
ENDBRANCH   5  16
TORSDOF 2
ENDMDL
MODEL 9
REMARK VINA RESULT:      -5.1      2.193      2.690
REMARK  Name = ./3D_structures\o67_MMV1782355_3D.pdb
REMARK  2 active torsions:
REMARK  status: ('A' for Active; 'I' for Inactive)
REMARK    1  A    between atoms: C3_5  and  C4_6
REMARK    2  A    between atoms: C4_6  and  C5_7
REMARK                            x       y       z     vdW  Elec       q    Type
REMARK                         _______ _______ _______ _____ _____    ______ ____
ROOT
ATOM      1  N1  UNL     1     145.816 167.266 165.666  0.00  0.00    +0.000 N 
ATOM      2  C1  UNL     1     145.427 166.062 166.336  0.00  0.00    +0.000 A 
ATOM      3  N2  UNL     1     146.201 165.533 167.295  0.00  0.00    +0.000 NA
ATOM      4  C2  UNL     1     145.788 164.407 167.897  0.00  0.00    +0.000 A 
ATOM      5  C3  UNL     1     146.359 163.646 168.904  0.00  0.00    +0.000 A 
ATOM      6  C10 UNL     1     145.491 162.602 169.126  0.00  0.00    +0.000 A 
ATOM      7  N4  UNL     1     144.430 162.701 168.302  0.00  0.00    +0.000 N 
ATOM      8  C11 UNL     1     144.591 163.809 167.531  0.00  0.00    +0.000 A 
ATOM      9  C12 UNL     1     143.826 164.378 166.546  0.00  0.00    +0.000 A 
ATOM     10  O1  UNL     1     142.752 163.840 166.219  0.00  0.00    +0.000 OA
ATOM     11  N5  UNL     1     144.262 165.505 165.961  0.00  0.00    +0.000 N 
ATOM     12  H1  UNL     1     145.884 167.233 164.632  0.00  0.00    +0.000 HD
ATOM     13  H2  UNL     1     146.001 168.085 166.265  0.00  0.00    +0.000 HD
ATOM     14  H10 UNL     1     143.608 162.072 168.224  0.00  0.00    +0.000 HD
ATOM     15  H11 UNL     1     143.673 165.927 165.215  0.00  0.00    +0.000 HD
ENDROOT
BRANCH   5  16
ATOM     16  C4  UNL     1     147.660 163.889 169.605  0.00  0.00    +0.000 C 
BRANCH  16  17
ATOM     17  C5  UNL     1     148.807 163.658 168.689  0.00  0.00    +0.000 A 
ATOM     18  C6  UNL     1     149.673 164.681 168.370  0.00  0.00    +0.000 A 
ATOM     19  C7  UNL     1     150.751 164.462 167.505  0.00  0.00    +0.000 A 
ATOM     20  C8  UNL     1     150.949 163.219 166.969  0.00  0.00    +0.000 A 
ATOM     21  N3  UNL     1     150.096 162.236 167.290  0.00  0.00    +0.000 NA
ATOM     22  C9  UNL     1     149.046 162.421 168.124  0.00  0.00    +0.000 A 
ENDBRANCH  16  17
ENDBRANCH   5  16
TORSDOF 2
ENDMDL
