MODEL 1
REMARK VINA RESULT:      -7.1      0.000      0.000
REMARK  Name = ./3D_structures\o69_MMV1782350_3D.pdb
REMARK  11 active torsions:
REMARK  status: ('A' for Active; 'I' for Inactive)
REMARK    1  A    between atoms: C1_1  and  C2_2
REMARK    2  A    between atoms: C2_2  and  C3_3
REMARK    3  A    between atoms: C2_2  and  O1_4
REMARK    4  A    between atoms: O1_4  and  C4_5
REMARK    5  A    between atoms: C7_8  and  N1_11
REMARK    6  A    between atoms: C13_16  and  C14_17
REMARK    7  A    between atoms: C15_18  and  C16_19
REMARK    8  A    between atoms: C19_22  and  C22_25
REMARK    9  A    between atoms: C22_25  and  C23_26
REMARK   10  A    between atoms: C22_25  and  C24_27
REMARK   11  A    between atoms: C22_25  and  O2_28
REMARK                            x       y       z     vdW  Elec       q    Type
REMARK                         _______ _______ _______ _____ _____    ______ ____
ROOT
ATOM      1  N1  UNL     1     150.300 159.323 169.282  0.00  0.00    +0.000 N 
ATOM      2  C10 UNL     1     151.656 159.278 169.201  0.00  0.00    +0.000 A 
ATOM      3  N2  UNL     1     152.121 158.189 169.804  0.00  0.00    +0.000 NA
ATOM      4  C11 UNL     1     151.025 157.533 170.277  0.00  0.00    +0.000 A 
ATOM      5  C12 UNL     1     150.919 156.359 170.960  0.00  0.00    +0.000 A 
ATOM      6  C13 UNL     1     149.706 155.798 171.364  0.00  0.00    +0.000 A 
ATOM      7  C25 UNL     1     148.581 156.509 171.037  0.00  0.00    +0.000 A 
ATOM      8  C26 UNL     1     148.694 157.699 170.349  0.00  0.00    +0.000 A 
ATOM      9  C27 UNL     1     149.905 158.242 169.951  0.00  0.00    +0.000 A 
ENDROOT
BRANCH   1  13
ATOM     10  C4  UNL     1     148.015 162.533 167.839  0.00  0.00    +0.000 A 
ATOM     11  C5  UNL     1     149.144 162.756 168.586  0.00  0.00    +0.000 A 
ATOM     12  C6  UNL     1     149.888 161.659 169.026  0.00  0.00    +0.000 A 
ATOM     13  C7  UNL     1     149.500 160.370 168.722  0.00  0.00    +0.000 A 
ATOM     14  C8  UNL     1     148.377 160.149 167.975  0.00  0.00    +0.000 A 
ATOM     15  C9  UNL     1     147.646 161.244 167.541  0.00  0.00    +0.000 A 
BRANCH  10  16
ATOM     16  O1  UNL     1     147.206 163.552 167.357  0.00  0.00    +0.000 OA
BRANCH  16  18
ATOM     17  C1  UNL     1     145.791 164.394 165.603  0.00  0.00    +0.000 C 
ATOM     18  C2  UNL     1     145.932 163.437 166.811  0.00  0.00    +0.000 C 
ATOM     19  C3  UNL     1     144.896 163.871 167.823  0.00  0.00    +0.000 C 
ENDBRANCH  16  18
ENDBRANCH  10  16
ENDBRANCH   1  13
BRANCH   6  20
ATOM     20  C14 UNL     1     149.815 154.638 172.167  0.00  0.00    +0.000 C 
ATOM     21  C15 UNL     1     149.689 153.416 171.793  0.00  0.00    +0.000 C 
BRANCH  21  22
ATOM     22  C16 UNL     1     149.432 152.971 170.465  0.00  0.00    +0.000 A 
ATOM     23  C17 UNL     1     148.106 152.708 170.094  0.00  0.00    +0.000 A 
ATOM     24  C18 UNL     1     147.739 152.180 168.885  0.00  0.00    +0.000 A 
ATOM     25  C19 UNL     1     148.670 151.865 167.931  0.00  0.00    +0.000 A 
ATOM     26  C20 UNL     1     149.980 152.104 168.244  0.00  0.00    +0.000 A 
ATOM     27  C21 UNL     1     150.345 152.641 169.480  0.00  0.00    +0.000 A 
BRANCH  25  28
ATOM     28  C22 UNL     1     148.206 151.258 166.647  0.00  0.00    +0.000 C 
ATOM     29  C23 UNL     1     147.088 150.281 166.809  0.00  0.00    +0.000 C 
ATOM     30  C24 UNL     1     147.808 152.390 165.718  0.00  0.00    +0.000 C 
BRANCH  28  31
ATOM     31  O2  UNL     1     149.279 150.583 166.030  0.00  0.00    +0.000 OA
ATOM     32  H26 UNL     1     148.903 150.112 165.228  0.00  0.00    +0.000 HD
ENDBRANCH  28  31
ENDBRANCH  25  28
ENDBRANCH  21  22
ENDBRANCH   6  20
TORSDOF 7
ENDMDL
MODEL 2
REMARK VINA RESULT:      -6.8      9.200     12.895
REMARK  Name = ./3D_structures\o69_MMV1782350_3D.pdb
REMARK  11 active torsions:
REMARK  status: ('A' for Active; 'I' for Inactive)
REMARK    1  A    between atoms: C1_1  and  C2_2
REMARK    2  A    between atoms: C2_2  and  C3_3
REMARK    3  A    between atoms: C2_2  and  O1_4
REMARK    4  A    between atoms: O1_4  and  C4_5
REMARK    5  A    between atoms: C7_8  and  N1_11
REMARK    6  A    between atoms: C13_16  and  C14_17
REMARK    7  A    between atoms: C15_18  and  C16_19
REMARK    8  A    between atoms: C19_22  and  C22_25
REMARK    9  A    between atoms: C22_25  and  C23_26
REMARK   10  A    between atoms: C22_25  and  C24_27
REMARK   11  A    between atoms: C22_25  and  O2_28
REMARK                            x       y       z     vdW  Elec       q    Type
REMARK                         _______ _______ _______ _____ _____    ______ ____
ROOT
ATOM      1  N1  UNL     1     160.554 157.923 166.834  0.00  0.00    +0.000 N 
ATOM      2  C10 UNL     1     160.252 157.340 165.644  0.00  0.00    +0.000 A 
ATOM      3  N2  UNL     1     158.988 156.934 165.633  0.00  0.00    +0.000 NA
ATOM      4  C11 UNL     1     158.482 157.270 166.852  0.00  0.00    +0.000 A 
ATOM      5  C12 UNL     1     157.235 157.102 167.373  0.00  0.00    +0.000 A 
ATOM      6  C13 UNL     1     156.858 157.525 168.649  0.00  0.00    +0.000 A 
ATOM      7  C25 UNL     1     157.836 158.137 169.388  0.00  0.00    +0.000 A 
ATOM      8  C26 UNL     1     159.099 158.302 168.857  0.00  0.00    +0.000 A 
ATOM      9  C27 UNL     1     159.457 157.879 167.587  0.00  0.00    +0.000 A 
ENDROOT
BRANCH   1  13
ATOM     10  C4  UNL     1     164.353 159.331 167.926  0.00  0.00    +0.000 A 
ATOM     11  C5  UNL     1     164.088 157.985 167.890  0.00  0.00    +0.000 A 
ATOM     12  C6  UNL     1     162.816 157.559 167.498  0.00  0.00    +0.000 A 
ATOM     13  C7  UNL     1     161.838 158.470 167.154  0.00  0.00    +0.000 A 
ATOM     14  C8  UNL     1     162.104 159.809 167.187  0.00  0.00    +0.000 A 
ATOM     15  C9  UNL     1     163.369 160.222 167.576  0.00  0.00    +0.000 A 
BRANCH  10  16
ATOM     16  O1  UNL     1     165.581 159.855 168.303  0.00  0.00    +0.000 OA
BRANCH  16  18
ATOM     17  C1  UNL     1     166.143 159.842 170.642  0.00  0.00    +0.000 C 
ATOM     18  C2  UNL     1     166.481 159.328 169.222  0.00  0.00    +0.000 C 
ATOM     19  C3  UNL     1     167.878 159.815 168.913  0.00  0.00    +0.000 C 
ENDBRANCH  16  18
ENDBRANCH  10  16
ENDBRANCH   1  13
BRANCH   6  20
ATOM     20  C14 UNL     1     155.554 157.148 169.049  0.00  0.00    +0.000 C 
ATOM     21  C15 UNL     1     154.443 157.680 168.687  0.00  0.00    +0.000 C 
BRANCH  21  22
ATOM     22  C16 UNL     1     154.293 158.762 167.773  0.00  0.00    +0.000 A 
ATOM     23  C17 UNL     1     154.139 160.056 168.289  0.00  0.00    +0.000 A 
ATOM     24  C18 UNL     1     153.885 161.162 167.522  0.00  0.00    +0.000 A 
ATOM     25  C19 UNL     1     153.762 161.073 166.161  0.00  0.00    +0.000 A 
ATOM     26  C20 UNL     1     153.905 159.831 165.607  0.00  0.00    +0.000 A 
ATOM     27  C21 UNL     1     154.162 158.709 166.397  0.00  0.00    +0.000 A 
BRANCH  25  28
ATOM     28  C22 UNL     1     153.448 162.312 165.386  0.00  0.00    +0.000 C 
ATOM     29  C23 UNL     1     154.593 162.825 164.575  0.00  0.00    +0.000 C 
ATOM     30  C24 UNL     1     152.249 162.013 164.504  0.00  0.00    +0.000 C 
BRANCH  28  31
ATOM     31  O2  UNL     1     153.057 163.335 166.272  0.00  0.00    +0.000 OA
ATOM     32  H26 UNL     1     153.129 162.959 167.199  0.00  0.00    +0.000 HD
ENDBRANCH  28  31
ENDBRANCH  25  28
ENDBRANCH  21  22
ENDBRANCH   6  20
TORSDOF 7
ENDMDL
MODEL 3
REMARK VINA RESULT:      -6.7      5.926      7.129
REMARK  Name = ./3D_structures\o69_MMV1782350_3D.pdb
REMARK  11 active torsions:
REMARK  status: ('A' for Active; 'I' for Inactive)
REMARK    1  A    between atoms: C1_1  and  C2_2
REMARK    2  A    between atoms: C2_2  and  C3_3
REMARK    3  A    between atoms: C2_2  and  O1_4
REMARK    4  A    between atoms: O1_4  and  C4_5
REMARK    5  A    between atoms: C7_8  and  N1_11
REMARK    6  A    between atoms: C13_16  and  C14_17
REMARK    7  A    between atoms: C15_18  and  C16_19
REMARK    8  A    between atoms: C19_22  and  C22_25
REMARK    9  A    between atoms: C22_25  and  C23_26
REMARK   10  A    between atoms: C22_25  and  C24_27
REMARK   11  A    between atoms: C22_25  and  O2_28
REMARK                            x       y       z     vdW  Elec       q    Type
REMARK                         _______ _______ _______ _____ _____    ______ ____
ROOT
ATOM      1  N1  UNL     1     152.045 161.195 170.344  0.00  0.00    +0.000 N 
ATOM      2  C10 UNL     1     151.418 160.495 171.326  0.00  0.00    +0.000 A 
ATOM      3  N2  UNL     1     152.306 159.855 172.079  0.00  0.00    +0.000 NA
ATOM      4  C11 UNL     1     153.524 160.162 171.553  0.00  0.00    +0.000 A 
ATOM      5  C12 UNL     1     154.776 159.791 171.939  0.00  0.00    +0.000 A 
ATOM      6  C13 UNL     1     155.946 160.211 171.302  0.00  0.00    +0.000 A 
ATOM      7  C25 UNL     1     155.774 161.041 170.226  0.00  0.00    +0.000 A 
ATOM      8  C26 UNL     1     154.504 161.411 169.837  0.00  0.00    +0.000 A 
ATOM      9  C27 UNL     1     153.352 160.989 170.481  0.00  0.00    +0.000 A 
ENDROOT
BRANCH   1  13
ATOM     10  C4  UNL     1     149.936 163.662 167.684  0.00  0.00    +0.000 A 
ATOM     11  C5  UNL     1     150.342 164.135 168.906  0.00  0.00    +0.000 A 
ATOM     12  C6  UNL     1     151.062 163.287 169.751  0.00  0.00    +0.000 A 
ATOM     13  C7  UNL     1     151.362 161.995 169.372  0.00  0.00    +0.000 A 
ATOM     14  C8  UNL     1     150.960 161.526 168.153  0.00  0.00    +0.000 A 
ATOM     15  C9  UNL     1     150.247 162.375 167.321  0.00  0.00    +0.000 A 
BRANCH  10  16
ATOM     16  O1  UNL     1     149.215 164.422 166.774  0.00  0.00    +0.000 OA
BRANCH  16  18
ATOM     17  C1  UNL     1     146.828 164.179 166.596  0.00  0.00    +0.000 C 
ATOM     18  C2  UNL     1     148.015 165.090 166.992  0.00  0.00    +0.000 C 
ATOM     19  C3  UNL     1     147.934 166.308 166.100  0.00  0.00    +0.000 C 
ENDBRANCH  16  18
ENDBRANCH  10  16
ENDBRANCH   1  13
BRANCH   6  20
ATOM     20  C14 UNL     1     157.139 159.617 171.778  0.00  0.00    +0.000 C 
ATOM     21  C15 UNL     1     157.845 158.713 171.201  0.00  0.00    +0.000 C 
BRANCH  21  22
ATOM     22  C16 UNL     1     157.579 158.132 169.928  0.00  0.00    +0.000 A 
ATOM     23  C17 UNL     1     158.478 158.378 168.881  0.00  0.00    +0.000 A 
ATOM     24  C18 UNL     1     158.284 157.963 167.591  0.00  0.00    +0.000 A 
ATOM     25  C19 UNL     1     157.166 157.259 167.228  0.00  0.00    +0.000 A 
ATOM     26  C20 UNL     1     156.257 156.993 168.214  0.00  0.00    +0.000 A 
ATOM     27  C21 UNL     1     156.463 157.421 169.527  0.00  0.00    +0.000 A 
BRANCH  25  28
ATOM     28  C22 UNL     1     156.997 156.869 165.795  0.00  0.00    +0.000 C 
ATOM     29  C23 UNL     1     157.164 158.001 164.835  0.00  0.00    +0.000 C 
ATOM     30  C24 UNL     1     157.988 155.757 165.500  0.00  0.00    +0.000 C 
BRANCH  28  31
ATOM     31  O2  UNL     1     155.710 156.329 165.603  0.00  0.00    +0.000 OA
ATOM     32  H26 UNL     1     155.446 156.538 164.658  0.00  0.00    +0.000 HD
ENDBRANCH  28  31
ENDBRANCH  25  28
ENDBRANCH  21  22
ENDBRANCH   6  20
TORSDOF 7
ENDMDL
MODEL 4
REMARK VINA RESULT:      -6.6      2.551      3.285
REMARK  Name = ./3D_structures\o69_MMV1782350_3D.pdb
REMARK  11 active torsions:
REMARK  status: ('A' for Active; 'I' for Inactive)
REMARK    1  A    between atoms: C1_1  and  C2_2
REMARK    2  A    between atoms: C2_2  and  C3_3
REMARK    3  A    between atoms: C2_2  and  O1_4
REMARK    4  A    between atoms: O1_4  and  C4_5
REMARK    5  A    between atoms: C7_8  and  N1_11
REMARK    6  A    between atoms: C13_16  and  C14_17
REMARK    7  A    between atoms: C15_18  and  C16_19
REMARK    8  A    between atoms: C19_22  and  C22_25
REMARK    9  A    between atoms: C22_25  and  C23_26
REMARK   10  A    between atoms: C22_25  and  C24_27
REMARK   11  A    between atoms: C22_25  and  O2_28
REMARK                            x       y       z     vdW  Elec       q    Type
REMARK                         _______ _______ _______ _____ _____    ______ ____
ROOT
ATOM      1  N1  UNL     1     145.690 157.789 169.627  0.00  0.00    +0.000 N 
ATOM      2  C10 UNL     1     144.618 157.327 170.323  0.00  0.00    +0.000 A 
ATOM      3  N2  UNL     1     145.006 156.471 171.261  0.00  0.00    +0.000 NA
ATOM      4  C11 UNL     1     146.362 156.392 171.149  0.00  0.00    +0.000 A 
ATOM      5  C12 UNL     1     147.271 155.676 171.867  0.00  0.00    +0.000 A 
ATOM      6  C13 UNL     1     148.650 155.717 171.643  0.00  0.00    +0.000 A 
ATOM      7  C25 UNL     1     149.064 156.536 170.626  0.00  0.00    +0.000 A 
ATOM      8  C26 UNL     1     148.139 157.257 169.900  0.00  0.00    +0.000 A 
ATOM      9  C27 UNL     1     146.774 157.209 170.136  0.00  0.00    +0.000 A 
ENDROOT
BRANCH   1  13
ATOM     10  C4  UNL     1     145.216 160.638 166.583  0.00  0.00    +0.000 A 
ATOM     11  C5  UNL     1     144.765 160.889 167.854  0.00  0.00    +0.000 A 
ATOM     12  C6  UNL     1     144.965 159.922 168.843  0.00  0.00    +0.000 A 
ATOM     13  C7  UNL     1     145.601 158.733 168.554  0.00  0.00    +0.000 A 
ATOM     14  C8  UNL     1     146.052 158.484 167.288  0.00  0.00    +0.000 A 
ATOM     15  C9  UNL     1     145.851 159.450 166.314  0.00  0.00    +0.000 A 
BRANCH  10  16
ATOM     16  O1  UNL     1     145.064 161.530 165.531  0.00  0.00    +0.000 OA
BRANCH  16  18
ATOM     17  C1  UNL     1     143.935 163.194 164.210  0.00  0.00    +0.000 C 
ATOM     18  C2  UNL     1     144.548 162.820 165.581  0.00  0.00    +0.000 C 
ATOM     19  C3  UNL     1     145.661 163.811 165.836  0.00  0.00    +0.000 C 
ENDBRANCH  16  18
ENDBRANCH  10  16
ENDBRANCH   1  13
BRANCH   6  20
ATOM     20  C14 UNL     1     149.413 154.809 172.412  0.00  0.00    +0.000 C 
ATOM     21  C15 UNL     1     149.690 153.587 172.129  0.00  0.00    +0.000 C 
BRANCH  21  22
ATOM     22  C16 UNL     1     149.298 152.894 170.949  0.00  0.00    +0.000 A 
ATOM     23  C17 UNL     1     150.160 152.919 169.843  0.00  0.00    +0.000 A 
ATOM     24  C18 UNL     1     149.855 152.380 168.621  0.00  0.00    +0.000 A 
ATOM     25  C19 UNL     1     148.653 151.762 168.394  0.00  0.00    +0.000 A 
ATOM     26  C20 UNL     1     147.776 151.711 169.442  0.00  0.00    +0.000 A 
ATOM     27  C21 UNL     1     148.096 152.264 170.684  0.00  0.00    +0.000 A 
BRANCH  25  28
ATOM     28  C22 UNL     1     148.368 151.228 167.027  0.00  0.00    +0.000 C 
ATOM     29  C23 UNL     1     147.187 150.314 166.969  0.00  0.00    +0.000 C 
ATOM     30  C24 UNL     1     148.183 152.414 166.098  0.00  0.00    +0.000 C 
BRANCH  28  31
ATOM     31  O2  UNL     1     149.487 150.513 166.558  0.00  0.00    +0.000 OA
ATOM     32  H26 UNL     1     149.982 150.184 167.367  0.00  0.00    +0.000 HD
ENDBRANCH  28  31
ENDBRANCH  25  28
ENDBRANCH  21  22
ENDBRANCH   6  20
TORSDOF 7
ENDMDL
MODEL 5
REMARK VINA RESULT:      -6.6      6.304      9.567
REMARK  Name = ./3D_structures\o69_MMV1782350_3D.pdb
REMARK  11 active torsions:
REMARK  status: ('A' for Active; 'I' for Inactive)
REMARK    1  A    between atoms: C1_1  and  C2_2
REMARK    2  A    between atoms: C2_2  and  C3_3
REMARK    3  A    between atoms: C2_2  and  O1_4
REMARK    4  A    between atoms: O1_4  and  C4_5
REMARK    5  A    between atoms: C7_8  and  N1_11
REMARK    6  A    between atoms: C13_16  and  C14_17
REMARK    7  A    between atoms: C15_18  and  C16_19
REMARK    8  A    between atoms: C19_22  and  C22_25
REMARK    9  A    between atoms: C22_25  and  C23_26
REMARK   10  A    between atoms: C22_25  and  C24_27
REMARK   11  A    between atoms: C22_25  and  O2_28
REMARK                            x       y       z     vdW  Elec       q    Type
REMARK                         _______ _______ _______ _____ _____    ______ ____
ROOT
ATOM      1  N1  UNL     1     151.289 163.438 166.320  0.00  0.00    +0.000 N 
ATOM      2  C10 UNL     1     151.319 164.549 165.537  0.00  0.00    +0.000 A 
ATOM      3  N2  UNL     1     150.385 165.413 165.919  0.00  0.00    +0.000 NA
ATOM      4  C11 UNL     1     149.750 164.826 166.972  0.00  0.00    +0.000 A 
ATOM      5  C12 UNL     1     148.726 165.272 167.751  0.00  0.00    +0.000 A 
ATOM      6  C13 UNL     1     148.190 164.554 168.823  0.00  0.00    +0.000 A 
ATOM      7  C25 UNL     1     148.756 163.330 169.062  0.00  0.00    +0.000 A 
ATOM      8  C26 UNL     1     149.790 162.881 168.268  0.00  0.00    +0.000 A 
ATOM      9  C27 UNL     1     150.315 163.607 167.211  0.00  0.00    +0.000 A 
ENDROOT
BRANCH   1  13
ATOM     10  C4  UNL     1     154.082 160.338 165.874  0.00  0.00    +0.000 A 
ATOM     11  C5  UNL     1     154.386 161.455 166.610  0.00  0.00    +0.000 A 
ATOM     12  C6  UNL     1     153.419 162.453 166.752  0.00  0.00    +0.000 A 
ATOM     13  C7  UNL     1     152.177 162.326 166.164  0.00  0.00    +0.000 A 
ATOM     14  C8  UNL     1     151.873 161.212 165.434  0.00  0.00    +0.000 A 
ATOM     15  C9  UNL     1     152.839 160.227 165.300  0.00  0.00    +0.000 A 
BRANCH  10  16
ATOM     16  O1  UNL     1     154.972 159.294 165.671  0.00  0.00    +0.000 OA
BRANCH  16  18
ATOM     17  C1  UNL     1     154.619 157.914 167.609  0.00  0.00    +0.000 C 
ATOM     18  C2  UNL     1     154.835 157.971 166.078  0.00  0.00    +0.000 C 
ATOM     19  C3  UNL     1     156.110 157.210 165.797  0.00  0.00    +0.000 C 
ENDBRANCH  16  18
ENDBRANCH  10  16
ENDBRANCH   1  13
BRANCH   6  20
ATOM     20  C14 UNL     1     147.052 165.135 169.429  0.00  0.00    +0.000 C 
ATOM     21  C15 UNL     1     145.835 165.076 169.022  0.00  0.00    +0.000 C 
BRANCH  21  22
ATOM     22  C16 UNL     1     145.372 164.378 167.870  0.00  0.00    +0.000 A 
ATOM     23  C17 UNL     1     144.875 163.078 168.032  0.00  0.00    +0.000 A 
ATOM     24  C18 UNL     1     144.496 162.267 166.996  0.00  0.00    +0.000 A 
ATOM     25  C19 UNL     1     144.581 162.686 165.694  0.00  0.00    +0.000 A 
ATOM     26  C20 UNL     1     145.060 163.949 165.482  0.00  0.00    +0.000 A 
ATOM     27  C21 UNL     1     145.445 164.768 166.546  0.00  0.00    +0.000 A 
BRANCH  25  28
ATOM     28  C22 UNL     1     144.186 161.739 164.607  0.00  0.00    +0.000 C 
ATOM     29  C23 UNL     1     142.808 161.184 164.759  0.00  0.00    +0.000 C 
ATOM     30  C24 UNL     1     144.335 162.468 163.284  0.00  0.00    +0.000 C 
BRANCH  28  31
ATOM     31  O2  UNL     1     145.085 160.655 164.579  0.00  0.00    +0.000 OA
ATOM     32  H26 UNL     1     146.002 161.041 164.449  0.00  0.00    +0.000 HD
ENDBRANCH  28  31
ENDBRANCH  25  28
ENDBRANCH  21  22
ENDBRANCH   6  20
TORSDOF 7
ENDMDL
MODEL 6
REMARK VINA RESULT:      -6.5      6.781      7.783
REMARK  Name = ./3D_structures\o69_MMV1782350_3D.pdb
REMARK  11 active torsions:
REMARK  status: ('A' for Active; 'I' for Inactive)
REMARK    1  A    between atoms: C1_1  and  C2_2
REMARK    2  A    between atoms: C2_2  and  C3_3
REMARK    3  A    between atoms: C2_2  and  O1_4
REMARK    4  A    between atoms: O1_4  and  C4_5
REMARK    5  A    between atoms: C7_8  and  N1_11
REMARK    6  A    between atoms: C13_16  and  C14_17
REMARK    7  A    between atoms: C15_18  and  C16_19
REMARK    8  A    between atoms: C19_22  and  C22_25
REMARK    9  A    between atoms: C22_25  and  C23_26
REMARK   10  A    between atoms: C22_25  and  C24_27
REMARK   11  A    between atoms: C22_25  and  O2_28
REMARK                            x       y       z     vdW  Elec       q    Type
REMARK                         _______ _______ _______ _____ _____    ______ ____
ROOT
ATOM      1  N1  UNL     1     151.445 163.705 170.814  0.00  0.00    +0.000 N 
ATOM      2  C10 UNL     1     152.183 164.825 171.035  0.00  0.00    +0.000 A 
ATOM      3  N2  UNL     1     153.221 164.551 171.817  0.00  0.00    +0.000 NA
ATOM      4  C11 UNL     1     153.130 163.221 172.097  0.00  0.00    +0.000 A 
ATOM      5  C12 UNL     1     153.936 162.413 172.840  0.00  0.00    +0.000 A 
ATOM      6  C13 UNL     1     153.720 161.045 173.018  0.00  0.00    +0.000 A 
ATOM      7  C25 UNL     1     152.615 160.529 172.393  0.00  0.00    +0.000 A 
ATOM      8  C26 UNL     1     151.800 161.352 171.645  0.00  0.00    +0.000 A 
ATOM      9  C27 UNL     1     152.029 162.708 171.474  0.00  0.00    +0.000 A 
ENDROOT
BRANCH   1  13
ATOM     10  C4  UNL     1     147.853 163.664 168.645  0.00  0.00    +0.000 A 
ATOM     11  C5  UNL     1     148.012 164.500 169.722  0.00  0.00    +0.000 A 
ATOM     12  C6  UNL     1     149.232 164.497 170.402  0.00  0.00    +0.000 A 
ATOM     13  C7  UNL     1     150.264 163.672 170.004  0.00  0.00    +0.000 A 
ATOM     14  C8  UNL     1     150.107 162.844 168.930  0.00  0.00    +0.000 A 
ATOM     15  C9  UNL     1     148.893 162.853 168.261  0.00  0.00    +0.000 A 
BRANCH  10  16
ATOM     16  O1  UNL     1     146.681 163.589 167.906  0.00  0.00    +0.000 OA
BRANCH  16  18
ATOM     17  C1  UNL     1     144.277 163.578 167.816  0.00  0.00    +0.000 C 
ATOM     18  C2  UNL     1     145.566 164.415 167.999  0.00  0.00    +0.000 C 
ATOM     19  C3  UNL     1     145.580 165.428 166.877  0.00  0.00    +0.000 C 
ENDBRANCH  16  18
ENDBRANCH  10  16
ENDBRANCH   1  13
BRANCH   6  20
ATOM     20  C14 UNL     1     154.600 160.408 173.924  0.00  0.00    +0.000 C 
ATOM     21  C15 UNL     1     155.693 159.792 173.648  0.00  0.00    +0.000 C 
BRANCH  21  22
ATOM     22  C16 UNL     1     156.264 159.645 172.351  0.00  0.00    +0.000 A 
ATOM     23  C17 UNL     1     156.135 158.409 171.702  0.00  0.00    +0.000 A 
ATOM     24  C18 UNL     1     156.724 158.108 170.503  0.00  0.00    +0.000 A 
ATOM     25  C19 UNL     1     157.499 159.022 169.839  0.00  0.00    +0.000 A 
ATOM     26  C20 UNL     1     157.656 160.245 170.431  0.00  0.00    +0.000 A 
ATOM     27  C21 UNL     1     157.052 160.542 171.655  0.00  0.00    +0.000 A 
BRANCH  25  28
ATOM     28  C22 UNL     1     158.143 158.618 168.553  0.00  0.00    +0.000 C 
ATOM     29  C23 UNL     1     159.620 158.417 168.652  0.00  0.00    +0.000 C 
ATOM     30  C24 UNL     1     157.455 157.354 168.069  0.00  0.00    +0.000 C 
BRANCH  28  31
ATOM     31  O2  UNL     1     157.909 159.608 167.578  0.00  0.00    +0.000 OA
ATOM     32  H26 UNL     1     157.750 160.468 168.070  0.00  0.00    +0.000 HD
ENDBRANCH  28  31
ENDBRANCH  25  28
ENDBRANCH  21  22
ENDBRANCH   6  20
TORSDOF 7
ENDMDL
MODEL 7
REMARK VINA RESULT:      -6.5      6.026      7.010
REMARK  Name = ./3D_structures\o69_MMV1782350_3D.pdb
REMARK  11 active torsions:
REMARK  status: ('A' for Active; 'I' for Inactive)
REMARK    1  A    between atoms: C1_1  and  C2_2
REMARK    2  A    between atoms: C2_2  and  C3_3
REMARK    3  A    between atoms: C2_2  and  O1_4
REMARK    4  A    between atoms: O1_4  and  C4_5
REMARK    5  A    between atoms: C7_8  and  N1_11
REMARK    6  A    between atoms: C13_16  and  C14_17
REMARK    7  A    between atoms: C15_18  and  C16_19
REMARK    8  A    between atoms: C19_22  and  C22_25
REMARK    9  A    between atoms: C22_25  and  C23_26
REMARK   10  A    between atoms: C22_25  and  C24_27
REMARK   11  A    between atoms: C22_25  and  O2_28
REMARK                            x       y       z     vdW  Elec       q    Type
REMARK                         _______ _______ _______ _____ _____    ______ ____
ROOT
ATOM      1  N1  UNL     1     152.822 163.106 169.612  0.00  0.00    +0.000 N 
ATOM      2  C10 UNL     1     153.839 163.987 169.418  0.00  0.00    +0.000 A 
ATOM      3  N2  UNL     1     154.975 163.498 169.904  0.00  0.00    +0.000 NA
ATOM      4  C11 UNL     1     154.660 162.277 170.420  0.00  0.00    +0.000 A 
ATOM      5  C12 UNL     1     155.441 161.341 171.026  0.00  0.00    +0.000 A 
ATOM      6  C13 UNL     1     154.970 160.111 171.489  0.00  0.00    +0.000 A 
ATOM      7  C25 UNL     1     153.632 159.877 171.304  0.00  0.00    +0.000 A 
ATOM      8  C26 UNL     1     152.844 160.830 170.693  0.00  0.00    +0.000 A 
ATOM      9  C27 UNL     1     153.328 162.045 170.235  0.00  0.00    +0.000 A 
ENDROOT
BRANCH   1  13
ATOM     10  C4  UNL     1     148.952 163.809 168.148  0.00  0.00    +0.000 A 
ATOM     11  C5  UNL     1     149.885 163.160 167.379  0.00  0.00    +0.000 A 
ATOM     12  C6  UNL     1     151.154 162.927 167.914  0.00  0.00    +0.000 A 
ATOM     13  C7  UNL     1     151.472 163.339 169.192  0.00  0.00    +0.000 A 
ATOM     14  C8  UNL     1     150.542 163.982 169.958  0.00  0.00    +0.000 A 
ATOM     15  C9  UNL     1     149.285 164.209 169.419  0.00  0.00    +0.000 A 
BRANCH  10  16
ATOM     16  O1  UNL     1     147.667 164.092 167.709  0.00  0.00    +0.000 OA
BRANCH  16  18
ATOM     17  C1  UNL     1     148.201 166.054 166.422  0.00  0.00    +0.000 C 
ATOM     18  C2  UNL     1     147.297 164.807 166.575  0.00  0.00    +0.000 C 
ATOM     19  C3  UNL     1     145.883 165.320 166.727  0.00  0.00    +0.000 C 
ENDBRANCH  16  18
ENDBRANCH  10  16
ENDBRANCH   1  13
BRANCH   6  20
ATOM     20  C14 UNL     1     155.913 159.331 172.199  0.00  0.00    +0.000 C 
ATOM     21  C15 UNL     1     156.636 158.374 171.741  0.00  0.00    +0.000 C 
BRANCH  21  22
ATOM     22  C16 UNL     1     156.653 157.910 170.395  0.00  0.00    +0.000 A 
ATOM     23  C17 UNL     1     157.745 158.251 169.585  0.00  0.00    +0.000 A 
ATOM     24  C18 UNL     1     157.833 157.955 168.251  0.00  0.00    +0.000 A 
ATOM     25  C19 UNL     1     156.829 157.285 167.601  0.00  0.00    +0.000 A 
ATOM     26  C20 UNL     1     155.740 156.929 168.347  0.00  0.00    +0.000 A 
ATOM     27  C21 UNL     1     155.660 157.237 169.707  0.00  0.00    +0.000 A 
BRANCH  25  28
ATOM     28  C22 UNL     1     156.970 157.026 166.136  0.00  0.00    +0.000 C 
ATOM     29  C23 UNL     1     156.862 158.253 165.291  0.00  0.00    +0.000 C 
ATOM     30  C24 UNL     1     158.303 156.332 165.917  0.00  0.00    +0.000 C 
BRANCH  28  31
ATOM     31  O2  UNL     1     155.969 156.127 165.719  0.00  0.00    +0.000 OA
ATOM     32  H26 UNL     1     155.221 156.680 165.342  0.00  0.00    +0.000 HD
ENDBRANCH  28  31
ENDBRANCH  25  28
ENDBRANCH  21  22
ENDBRANCH   6  20
TORSDOF 7
ENDMDL
MODEL 8
REMARK VINA RESULT:      -6.5      6.388     10.394
REMARK  Name = ./3D_structures\o69_MMV1782350_3D.pdb
REMARK  11 active torsions:
REMARK  status: ('A' for Active; 'I' for Inactive)
REMARK    1  A    between atoms: C1_1  and  C2_2
REMARK    2  A    between atoms: C2_2  and  C3_3
REMARK    3  A    between atoms: C2_2  and  O1_4
REMARK    4  A    between atoms: O1_4  and  C4_5
REMARK    5  A    between atoms: C7_8  and  N1_11
REMARK    6  A    between atoms: C13_16  and  C14_17
REMARK    7  A    between atoms: C15_18  and  C16_19
REMARK    8  A    between atoms: C19_22  and  C22_25
REMARK    9  A    between atoms: C22_25  and  C23_26
REMARK   10  A    between atoms: C22_25  and  C24_27
REMARK   11  A    between atoms: C22_25  and  O2_28
REMARK                            x       y       z     vdW  Elec       q    Type
REMARK                         _______ _______ _______ _____ _____    ______ ____
ROOT
ATOM      1  N1  UNL     1     157.896 158.703 168.242  0.00  0.00    +0.000 N 
ATOM      2  C10 UNL     1     158.632 159.846 168.202  0.00  0.00    +0.000 A 
ATOM      3  N2  UNL     1     158.487 160.531 169.331  0.00  0.00    +0.000 NA
ATOM      4  C11 UNL     1     157.636 159.798 170.101  0.00  0.00    +0.000 A 
ATOM      5  C12 UNL     1     157.157 160.023 171.356  0.00  0.00    +0.000 A 
ATOM      6  C13 UNL     1     156.295 159.154 172.030  0.00  0.00    +0.000 A 
ATOM      7  C25 UNL     1     155.932 158.024 171.346  0.00  0.00    +0.000 A 
ATOM      8  C26 UNL     1     156.417 157.802 170.074  0.00  0.00    +0.000 A 
ATOM      9  C27 UNL     1     157.276 158.672 169.419  0.00  0.00    +0.000 A 
ENDROOT
BRANCH   1  13
ATOM     10  C4  UNL     1     157.937 156.025 165.013  0.00  0.00    +0.000 A 
ATOM     11  C5  UNL     1     159.093 156.634 165.433  0.00  0.00    +0.000 A 
ATOM     12  C6  UNL     1     159.038 157.501 166.526  0.00  0.00    +0.000 A 
ATOM     13  C7  UNL     1     157.846 157.747 167.178  0.00  0.00    +0.000 A 
ATOM     14  C8  UNL     1     156.697 157.137 166.762  0.00  0.00    +0.000 A 
ATOM     15  C9  UNL     1     156.761 156.278 165.676  0.00  0.00    +0.000 A 
BRANCH  10  16
ATOM     16  O1  UNL     1     157.885 155.151 163.937  0.00  0.00    +0.000 OA
BRANCH  16  18
ATOM     17  C1  UNL     1     158.875 153.056 164.583  0.00  0.00    +0.000 C 
ATOM     18  C2  UNL     1     157.653 153.780 163.969  0.00  0.00    +0.000 C 
ATOM     19  C3  UNL     1     157.506 153.249 162.561  0.00  0.00    +0.000 C 
ENDBRANCH  16  18
ENDBRANCH  10  16
ENDBRANCH   1  13
BRANCH   6  20
ATOM     20  C14 UNL     1     155.815 159.626 173.274  0.00  0.00    +0.000 C 
ATOM     21  C15 UNL     1     154.731 160.279 173.495  0.00  0.00    +0.000 C 
BRANCH  21  22
ATOM     22  C16 UNL     1     153.763 160.646 172.517  0.00  0.00    +0.000 A 
ATOM     23  C17 UNL     1     152.597 159.874 172.410  0.00  0.00    +0.000 A 
ATOM     24  C18 UNL     1     151.640 160.060 171.448  0.00  0.00    +0.000 A 
ATOM     25  C19 UNL     1     151.763 161.041 170.500  0.00  0.00    +0.000 A 
ATOM     26  C20 UNL     1     152.884 161.822 170.560  0.00  0.00    +0.000 A 
ATOM     27  C21 UNL     1     153.854 161.625 171.545  0.00  0.00    +0.000 A 
BRANCH  25  28
ATOM     28  C22 UNL     1     150.702 161.166 169.455  0.00  0.00    +0.000 C 
ATOM     29  C23 UNL     1     149.970 162.468 169.489  0.00  0.00    +0.000 C 
ATOM     30  C24 UNL     1     151.357 160.947 168.103  0.00  0.00    +0.000 C 
BRANCH  28  31
ATOM     31  O2  UNL     1     149.754 160.137 169.621  0.00  0.00    +0.000 OA
ATOM     32  H26 UNL     1     150.251 159.339 169.972  0.00  0.00    +0.000 HD
ENDBRANCH  28  31
ENDBRANCH  25  28
ENDBRANCH  21  22
ENDBRANCH   6  20
TORSDOF 7
ENDMDL
MODEL 9
REMARK VINA RESULT:      -6.3      4.146     11.017
REMARK  Name = ./3D_structures\o69_MMV1782350_3D.pdb
REMARK  11 active torsions:
REMARK  status: ('A' for Active; 'I' for Inactive)
REMARK    1  A    between atoms: C1_1  and  C2_2
REMARK    2  A    between atoms: C2_2  and  C3_3
REMARK    3  A    between atoms: C2_2  and  O1_4
REMARK    4  A    between atoms: O1_4  and  C4_5
REMARK    5  A    between atoms: C7_8  and  N1_11
REMARK    6  A    between atoms: C13_16  and  C14_17
REMARK    7  A    between atoms: C15_18  and  C16_19
REMARK    8  A    between atoms: C19_22  and  C22_25
REMARK    9  A    between atoms: C22_25  and  C23_26
REMARK   10  A    between atoms: C22_25  and  C24_27
REMARK   11  A    between atoms: C22_25  and  O2_28
REMARK                            x       y       z     vdW  Elec       q    Type
REMARK                         _______ _______ _______ _____ _____    ______ ____
ROOT
ATOM      1  N1  UNL     1     145.154 158.587 164.467  0.00  0.00    +0.000 N 
ATOM      2  C10 UNL     1     145.425 158.947 163.184  0.00  0.00    +0.000 A 
ATOM      3  N2  UNL     1     145.092 160.217 162.978  0.00  0.00    +0.000 NA
ATOM      4  C11 UNL     1     144.596 160.665 164.165  0.00  0.00    +0.000 A 
ATOM      5  C12 UNL     1     144.122 161.890 164.523  0.00  0.00    +0.000 A 
ATOM      6  C13 UNL     1     143.660 162.206 165.803  0.00  0.00    +0.000 A 
ATOM      7  C25 UNL     1     143.701 161.188 166.719  0.00  0.00    +0.000 A 
ATOM      8  C26 UNL     1     144.178 159.948 166.351  0.00  0.00    +0.000 A 
ATOM      9  C27 UNL     1     144.637 159.650 165.077  0.00  0.00    +0.000 A 
ENDROOT
BRANCH   1  13
ATOM     10  C4  UNL     1     146.139 154.811 166.008  0.00  0.00    +0.000 A 
ATOM     11  C5  UNL     1     146.964 155.888 166.213  0.00  0.00    +0.000 A 
ATOM     12  C6  UNL     1     146.586 157.132 165.702  0.00  0.00    +0.000 A 
ATOM     13  C7  UNL     1     145.407 157.283 165.001  0.00  0.00    +0.000 A 
ATOM     14  C8  UNL     1     144.585 156.210 164.801  0.00  0.00    +0.000 A 
ATOM     15  C9  UNL     1     144.968 154.980 165.313  0.00  0.00    +0.000 A 
BRANCH  10  16
ATOM     16  O1  UNL     1     146.425 153.534 166.471  0.00  0.00    +0.000 OA
BRANCH  16  18
ATOM     17  C1  UNL     1     147.629 151.789 165.334  0.00  0.00    +0.000 C 
ATOM     18  C2  UNL     1     147.649 152.875 166.437  0.00  0.00    +0.000 C 
ATOM     19  C3  UNL     1     147.881 152.151 167.744  0.00  0.00    +0.000 C 
ENDBRANCH  16  18
ENDBRANCH  10  16
ENDBRANCH   1  13
BRANCH   6  20
ATOM     20  C14 UNL     1     143.095 163.495 165.939  0.00  0.00    +0.000 C 
ATOM     21  C15 UNL     1     143.694 164.575 166.294  0.00  0.00    +0.000 C 
BRANCH  21  22
ATOM     22  C16 UNL     1     145.078 164.700 166.603  0.00  0.00    +0.000 A 
ATOM     23  C17 UNL     1     145.468 164.659 167.949  0.00  0.00    +0.000 A 
ATOM     24  C18 UNL     1     146.750 164.869 168.383  0.00  0.00    +0.000 A 
ATOM     25  C19 UNL     1     147.765 165.140 167.504  0.00  0.00    +0.000 A 
ATOM     26  C20 UNL     1     147.437 165.192 166.177  0.00  0.00    +0.000 A 
ATOM     27  C21 UNL     1     146.126 164.977 165.745  0.00  0.00    +0.000 A 
BRANCH  25  28
ATOM     28  C22 UNL     1     149.134 165.396 168.045  0.00  0.00    +0.000 C 
ATOM     29  C23 UNL     1     149.178 165.562 169.529  0.00  0.00    +0.000 C 
ATOM     30  C24 UNL     1     150.028 164.252 167.600  0.00  0.00    +0.000 C 
BRANCH  28  31
ATOM     31  O2  UNL     1     149.657 166.570 167.467  0.00  0.00    +0.000 OA
ATOM     32  H26 UNL     1     148.922 167.252 167.479  0.00  0.00    +0.000 HD
ENDBRANCH  28  31
ENDBRANCH  25  28
ENDBRANCH  21  22
ENDBRANCH   6  20
TORSDOF 7
ENDMDL
