MODEL 1
REMARK VINA RESULT:      -6.3      0.000      0.000
REMARK  Name = ./3D_structures\o70_MMV1782386_3D.pdb
REMARK  8 active torsions:
REMARK  status: ('A' for Active; 'I' for Inactive)
REMARK    1  A    between atoms: C1_1  and  N1_2
REMARK    2  A    between atoms: N1_2  and  O1_3
REMARK    3  A    between atoms: C2_4  and  C3_6
REMARK    4  A    between atoms: C6_9  and  C7_10
REMARK    5  A    between atoms: C7_10  and  N2_11
REMARK    6  A    between atoms: C11_15  and  C12_16
REMARK    7  A    between atoms: N4_20  and  C14_21
REMARK    8  A    between atoms: C14_21  and  C15_22
REMARK                            x       y       z     vdW  Elec       q    Type
REMARK                         _______ _______ _______ _____ _____    ______ ____
ROOT
ATOM      1  C3  UNL     1     146.952 164.247 166.927  0.00  0.00    +0.000 A 
ATOM      2  C4  UNL     1     146.582 162.907 166.991  0.00  0.00    +0.000 A 
ATOM      3  C5  UNL     1     147.638 162.058 167.384  0.00  0.00    +0.000 A 
ATOM      4  C6  UNL     1     147.522 160.722 167.806  0.00  0.00    +0.000 A 
ATOM      5  C13 UNL     1     148.770 160.430 168.309  0.00  0.00    +0.000 A 
ATOM      6  N4  UNL     1     149.608 161.428 168.247  0.00  0.00    +0.000 N 
ATOM      7  C21 UNL     1     148.901 162.466 167.663  0.00  0.00    +0.000 A 
ATOM      8  C22 UNL     1     149.183 163.838 167.570  0.00  0.00    +0.000 A 
ATOM      9  N5  UNL     1     148.198 164.653 167.210  0.00  0.00    +0.000 NA
ENDROOT
BRANCH   1  12
ATOM     10  C1  UNL     1     145.083 167.325 165.685  0.00  0.00    +0.000 C 
ATOM     11  N1  UNL     1     146.110 166.340 165.887  0.00  0.00    +0.000 N 
ATOM     12  C2  UNL     1     145.886 165.200 166.690  0.00  0.00    +0.000 C 
ATOM     13  O2  UNL     1     144.734 165.054 167.203  0.00  0.00    +0.000 OA
BRANCH  11  14
ATOM     14  O1  UNL     1     147.324 166.510 165.298  0.00  0.00    +0.000 OA
ATOM     15  H4  UNL     1     147.498 167.453 165.079  0.00  0.00    +0.000 HD
ENDBRANCH  11  14
ENDBRANCH   1  12
BRANCH   4  16
ATOM     16  C7  UNL     1     146.353 159.840 167.547  0.00  0.00    +0.000 C 
BRANCH  16  17
ATOM     17  N2  UNL     1     146.735 159.169 166.277  0.00  0.00    +0.000 NA
ATOM     18  C8  UNL     1     147.024 157.774 166.813  0.00  0.00    +0.000 C 
ATOM     19  C9  UNL     1     145.615 157.299 167.072  0.00  0.00    +0.000 C 
ATOM     20  C10 UNL     1     145.005 157.602 165.702  0.00  0.00    +0.000 C 
ATOM     21  C11 UNL     1     145.650 158.905 165.404  0.00  0.00    +0.000 C 
BRANCH  21  22
ATOM     22  C12 UNL     1     144.694 160.028 165.299  0.00  0.00    +0.000 C 
ATOM     23  O3  UNL     1     145.016 161.034 164.655  0.00  0.00    +0.000 OA
ATOM     24  N3  UNL     1     143.421 159.939 165.920  0.00  0.00    +0.000 N 
ATOM     25  H15 UNL     1     143.332 160.475 166.828  0.00  0.00    +0.000 HD
ATOM     26  H16 UNL     1     142.626 159.404 165.539  0.00  0.00    +0.000 HD
ENDBRANCH  21  22
ENDBRANCH  16  17
ENDBRANCH   4  16
BRANCH   6  27
ATOM     27  C14 UNL     1     151.000 161.560 168.521  0.00  0.00    +0.000 C 
BRANCH  27  28
ATOM     28  C15 UNL     1     152.021 160.754 167.877  0.00  0.00    +0.000 A 
ATOM     29  C16 UNL     1     152.780 159.787 168.458  0.00  0.00    +0.000 A 
ATOM     30  C17 UNL     1     153.698 159.081 167.664  0.00  0.00    +0.000 A 
ATOM     31  C18 UNL     1     153.876 159.315 166.338  0.00  0.00    +0.000 A 
ATOM     32  F1  UNL     1     154.727 158.636 165.561  0.00  0.00    +0.000 F 
ATOM     33  C19 UNL     1     153.106 160.315 165.724  0.00  0.00    +0.000 A 
ATOM     34  C20 UNL     1     152.212 160.992 166.504  0.00  0.00    +0.000 A 
ENDBRANCH  27  28
ENDBRANCH   6  27
TORSDOF 7
ENDMDL
MODEL 2
REMARK VINA RESULT:      -6.2      5.379      8.469
REMARK  Name = ./3D_structures\o70_MMV1782386_3D.pdb
REMARK  8 active torsions:
REMARK  status: ('A' for Active; 'I' for Inactive)
REMARK    1  A    between atoms: C1_1  and  N1_2
REMARK    2  A    between atoms: N1_2  and  O1_3
REMARK    3  A    between atoms: C2_4  and  C3_6
REMARK    4  A    between atoms: C6_9  and  C7_10
REMARK    5  A    between atoms: C7_10  and  N2_11
REMARK    6  A    between atoms: C11_15  and  C12_16
REMARK    7  A    between atoms: N4_20  and  C14_21
REMARK    8  A    between atoms: C14_21  and  C15_22
REMARK                            x       y       z     vdW  Elec       q    Type
REMARK                         _______ _______ _______ _____ _____    ______ ____
ROOT
ATOM      1  C3  UNL     1     151.673 161.703 167.482  0.00  0.00    +0.000 A 
ATOM      2  C4  UNL     1     152.797 161.033 167.954  0.00  0.00    +0.000 A 
ATOM      3  C5  UNL     1     152.485 159.970 168.827  0.00  0.00    +0.000 A 
ATOM      4  C6  UNL     1     153.356 158.948 169.242  0.00  0.00    +0.000 A 
ATOM      5  C13 UNL     1     152.523 158.044 169.864  0.00  0.00    +0.000 A 
ATOM      6  N4  UNL     1     151.268 158.399 169.861  0.00  0.00    +0.000 N 
ATOM      7  C21 UNL     1     151.231 159.618 169.206  0.00  0.00    +0.000 A 
ATOM      8  C22 UNL     1     150.157 160.353 168.682  0.00  0.00    +0.000 A 
ATOM      9  N5  UNL     1     150.432 161.352 167.850  0.00  0.00    +0.000 NA
ENDROOT
BRANCH   1  12
ATOM     10  C1  UNL     1     152.187 163.294 164.060  0.00  0.00    +0.000 C 
ATOM     11  N1  UNL     1     151.911 162.332 165.091  0.00  0.00    +0.000 N 
ATOM     12  C2  UNL     1     151.898 162.700 166.455  0.00  0.00    +0.000 C 
ATOM     13  O2  UNL     1     152.105 163.919 166.740  0.00  0.00    +0.000 OA
BRANCH  11  14
ATOM     14  O1  UNL     1     151.662 161.039 164.748  0.00  0.00    +0.000 OA
ATOM     15  H4  UNL     1     152.301 160.419 165.165  0.00  0.00    +0.000 HD
ENDBRANCH  11  14
ENDBRANCH   1  12
BRANCH   4  16
ATOM     16  C7  UNL     1     154.840 159.003 169.167  0.00  0.00    +0.000 C 
BRANCH  16  17
ATOM     17  N2  UNL     1     155.203 157.573 168.984  0.00  0.00    +0.000 NA
ATOM     18  C8  UNL     1     155.231 157.519 167.463  0.00  0.00    +0.000 C 
ATOM     19  C9  UNL     1     156.518 158.263 167.201  0.00  0.00    +0.000 C 
ATOM     20  C10 UNL     1     157.445 157.469 168.124  0.00  0.00    +0.000 C 
ATOM     21  C11 UNL     1     156.552 157.266 169.291  0.00  0.00    +0.000 C 
BRANCH  21  22
ATOM     22  C12 UNL     1     157.037 157.921 170.526  0.00  0.00    +0.000 C 
ATOM     23  O3  UNL     1     156.526 157.612 171.610  0.00  0.00    +0.000 OA
ATOM     24  N3  UNL     1     158.082 158.877 170.461  0.00  0.00    +0.000 N 
ATOM     25  H15 UNL     1     157.766 159.885 170.530  0.00  0.00    +0.000 HD
ATOM     26  H16 UNL     1     159.080 158.640 170.357  0.00  0.00    +0.000 HD
ENDBRANCH  21  22
ENDBRANCH  16  17
ENDBRANCH   4  16
BRANCH   6  27
ATOM     27  C14 UNL     1     150.096 157.866 170.472  0.00  0.00    +0.000 C 
BRANCH  27  28
ATOM     28  C15 UNL     1     150.123 156.804 171.461  0.00  0.00    +0.000 A 
ATOM     29  C16 UNL     1     149.875 156.926 172.792  0.00  0.00    +0.000 A 
ATOM     30  C17 UNL     1     149.910 155.774 173.594  0.00  0.00    +0.000 A 
ATOM     31  C18 UNL     1     150.184 154.534 173.112  0.00  0.00    +0.000 A 
ATOM     32  F1  UNL     1     150.198 153.423 173.856  0.00  0.00    +0.000 F 
ATOM     33  C19 UNL     1     150.451 154.392 171.742  0.00  0.00    +0.000 A 
ATOM     34  C20 UNL     1     150.409 155.518 170.970  0.00  0.00    +0.000 A 
ENDBRANCH  27  28
ENDBRANCH   6  27
TORSDOF 7
ENDMDL
MODEL 3
REMARK VINA RESULT:      -6.2      5.072      8.545
REMARK  Name = ./3D_structures\o70_MMV1782386_3D.pdb
REMARK  8 active torsions:
REMARK  status: ('A' for Active; 'I' for Inactive)
REMARK    1  A    between atoms: C1_1  and  N1_2
REMARK    2  A    between atoms: N1_2  and  O1_3
REMARK    3  A    between atoms: C2_4  and  C3_6
REMARK    4  A    between atoms: C6_9  and  C7_10
REMARK    5  A    between atoms: C7_10  and  N2_11
REMARK    6  A    between atoms: C11_15  and  C12_16
REMARK    7  A    between atoms: N4_20  and  C14_21
REMARK    8  A    between atoms: C14_21  and  C15_22
REMARK                            x       y       z     vdW  Elec       q    Type
REMARK                         _______ _______ _______ _____ _____    ______ ____
ROOT
ATOM      1  C3  UNL     1     150.160 157.553 170.314  0.00  0.00    +0.000 A 
ATOM      2  C4  UNL     1     151.479 157.975 170.443  0.00  0.00    +0.000 A 
ATOM      3  C5  UNL     1     151.737 159.200 169.793  0.00  0.00    +0.000 A 
ATOM      4  C6  UNL     1     152.869 160.014 169.966  0.00  0.00    +0.000 A 
ATOM      5  C13 UNL     1     152.530 161.184 169.321  0.00  0.00    +0.000 A 
ATOM      6  N4  UNL     1     151.336 161.166 168.796  0.00  0.00    +0.000 N 
ATOM      7  C21 UNL     1     150.823 159.914 169.089  0.00  0.00    +0.000 A 
ATOM      8  C22 UNL     1     149.516 159.410 169.010  0.00  0.00    +0.000 A 
ATOM      9  N5  UNL     1     149.253 158.262 169.626  0.00  0.00    +0.000 NA
ENDROOT
BRANCH   1  12
ATOM     10  C1  UNL     1     148.222 155.284 172.682  0.00  0.00    +0.000 C 
ATOM     11  N1  UNL     1     148.593 156.406 171.864  0.00  0.00    +0.000 N 
ATOM     12  C2  UNL     1     149.774 156.391 171.089  0.00  0.00    +0.000 C 
ATOM     13  O2  UNL     1     150.483 155.338 171.112  0.00  0.00    +0.000 OA
BRANCH  11  14
ATOM     14  O1  UNL     1     147.795 157.507 171.837  0.00  0.00    +0.000 OA
ATOM     15  H4  UNL     1     147.775 157.967 172.706  0.00  0.00    +0.000 HD
ENDBRANCH  11  14
ENDBRANCH   1  12
BRANCH   4  16
ATOM     16  C7  UNL     1     154.165 159.571 170.545  0.00  0.00    +0.000 C 
BRANCH  16  17
ATOM     17  N2  UNL     1     155.111 159.799 169.423  0.00  0.00    +0.000 NA
ATOM     18  C8  UNL     1     156.063 160.777 170.097  0.00  0.00    +0.000 C 
ATOM     19  C9  UNL     1     156.799 159.831 171.013  0.00  0.00    +0.000 C 
ATOM     20  C10 UNL     1     157.211 158.775 169.986  0.00  0.00    +0.000 C 
ATOM     21  C11 UNL     1     155.981 158.712 169.159  0.00  0.00    +0.000 C 
BRANCH  21  22
ATOM     22  C12 UNL     1     155.307 157.396 169.201  0.00  0.00    +0.000 C 
ATOM     23  O3  UNL     1     154.519 157.094 168.296  0.00  0.00    +0.000 OA
ATOM     24  N3  UNL     1     155.577 156.493 170.261  0.00  0.00    +0.000 N 
ATOM     25  H15 UNL     1     154.828 156.450 171.009  0.00  0.00    +0.000 HD
ATOM     26  H16 UNL     1     156.424 155.909 170.325  0.00  0.00    +0.000 HD
ENDBRANCH  21  22
ENDBRANCH  16  17
ENDBRANCH   4  16
BRANCH   6  27
ATOM     27  C14 UNL     1     150.621 162.066 167.955  0.00  0.00    +0.000 C 
BRANCH  27  28
ATOM     28  C15 UNL     1     151.129 162.546 166.682  0.00  0.00    +0.000 A 
ATOM     29  C16 UNL     1     151.203 163.840 166.272  0.00  0.00    +0.000 A 
ATOM     30  C17 UNL     1     151.762 164.119 165.015  0.00  0.00    +0.000 A 
ATOM     31  C18 UNL     1     152.232 163.160 164.175  0.00  0.00    +0.000 A 
ATOM     32  F1  UNL     1     152.790 163.409 162.985  0.00  0.00    +0.000 F 
ATOM     33  C19 UNL     1     152.155 161.819 164.579  0.00  0.00    +0.000 A 
ATOM     34  C20 UNL     1     151.615 161.559 165.806  0.00  0.00    +0.000 A 
ENDBRANCH  27  28
ENDBRANCH   6  27
TORSDOF 7
ENDMDL
MODEL 4
REMARK VINA RESULT:      -6.2      2.742      4.131
REMARK  Name = ./3D_structures\o70_MMV1782386_3D.pdb
REMARK  8 active torsions:
REMARK  status: ('A' for Active; 'I' for Inactive)
REMARK    1  A    between atoms: C1_1  and  N1_2
REMARK    2  A    between atoms: N1_2  and  O1_3
REMARK    3  A    between atoms: C2_4  and  C3_6
REMARK    4  A    between atoms: C6_9  and  C7_10
REMARK    5  A    between atoms: C7_10  and  N2_11
REMARK    6  A    between atoms: C11_15  and  C12_16
REMARK    7  A    between atoms: N4_20  and  C14_21
REMARK    8  A    between atoms: C14_21  and  C15_22
REMARK                            x       y       z     vdW  Elec       q    Type
REMARK                         _______ _______ _______ _____ _____    ______ ____
ROOT
ATOM      1  C3  UNL     1     150.575 165.745 169.186  0.00  0.00    +0.000 A 
ATOM      2  C4  UNL     1     149.440 164.977 168.946  0.00  0.00    +0.000 A 
ATOM      3  C5  UNL     1     149.698 163.837 168.157  0.00  0.00    +0.000 A 
ATOM      4  C6  UNL     1     148.843 162.736 167.975  0.00  0.00    +0.000 A 
ATOM      5  C13 UNL     1     149.639 161.805 167.346  0.00  0.00    +0.000 A 
ATOM      6  N4  UNL     1     150.861 162.213 167.140  0.00  0.00    +0.000 N 
ATOM      7  C21 UNL     1     150.911 163.500 167.651  0.00  0.00    +0.000 A 
ATOM      8  C22 UNL     1     151.999 164.336 167.942  0.00  0.00    +0.000 A 
ATOM      9  N5  UNL     1     151.776 165.410 168.693  0.00  0.00    +0.000 NA
ENDROOT
BRANCH   1  12
ATOM     10  C1  UNL     1     150.563 169.269 170.633  0.00  0.00    +0.000 C 
ATOM     11  N1  UNL     1     150.651 168.173 169.707  0.00  0.00    +0.000 N 
ATOM     12  C2  UNL     1     150.427 166.841 170.122  0.00  0.00    +0.000 C 
ATOM     13  O2  UNL     1     150.110 166.645 171.335  0.00  0.00    +0.000 OA
BRANCH  11  14
ATOM     14  O1  UNL     1     150.962 168.421 168.406  0.00  0.00    +0.000 OA
ATOM     15  H4  UNL     1     151.646 167.801 168.068  0.00  0.00    +0.000 HD
ENDBRANCH  11  14
ENDBRANCH   1  12
BRANCH   4  16
ATOM     16  C7  UNL     1     147.380 162.733 168.245  0.00  0.00    +0.000 C 
BRANCH  16  17
ATOM     17  N2  UNL     1     146.811 162.412 166.911  0.00  0.00    +0.000 NA
ATOM     18  C8  UNL     1     145.879 161.276 167.307  0.00  0.00    +0.000 C 
ATOM     19  C9  UNL     1     144.789 162.062 167.993  0.00  0.00    +0.000 C 
ATOM     20  C10 UNL     1     144.504 163.086 166.893  0.00  0.00    +0.000 C 
ATOM     21  C11 UNL     1     145.883 163.366 166.424  0.00  0.00    +0.000 C 
BRANCH  21  22
ATOM     22  C12 UNL     1     146.310 164.765 166.644  0.00  0.00    +0.000 C 
ATOM     23  O3  UNL     1     145.759 165.429 167.531  0.00  0.00    +0.000 OA
ATOM     24  N3  UNL     1     147.346 165.326 165.854  0.00  0.00    +0.000 N 
ATOM     25  H15 UNL     1     147.016 165.971 165.082  0.00  0.00    +0.000 HD
ATOM     26  H16 UNL     1     148.350 165.141 165.997  0.00  0.00    +0.000 HD
ENDBRANCH  21  22
ENDBRANCH  16  17
ENDBRANCH   4  16
BRANCH   6  27
ATOM     27  C14 UNL     1     151.973 161.667 166.436  0.00  0.00    +0.000 C 
BRANCH  27  28
ATOM     28  C15 UNL     1     152.738 160.528 166.911  0.00  0.00    +0.000 A 
ATOM     29  C16 UNL     1     152.749 160.026 168.175  0.00  0.00    +0.000 A 
ATOM     30  C17 UNL     1     153.527 158.888 168.442  0.00  0.00    +0.000 A 
ATOM     31  C18 UNL     1     154.280 158.259 167.503  0.00  0.00    +0.000 A 
ATOM     32  F1  UNL     1     155.007 157.160 167.733  0.00  0.00    +0.000 F 
ATOM     33  C19 UNL     1     154.287 158.769 166.196  0.00  0.00    +0.000 A 
ATOM     34  C20 UNL     1     153.522 159.872 165.945  0.00  0.00    +0.000 A 
ENDBRANCH  27  28
ENDBRANCH   6  27
TORSDOF 7
ENDMDL
MODEL 5
REMARK VINA RESULT:      -6.1      3.312      6.141
REMARK  Name = ./3D_structures\o70_MMV1782386_3D.pdb
REMARK  8 active torsions:
REMARK  status: ('A' for Active; 'I' for Inactive)
REMARK    1  A    between atoms: C1_1  and  N1_2
REMARK    2  A    between atoms: N1_2  and  O1_3
REMARK    3  A    between atoms: C2_4  and  C3_6
REMARK    4  A    between atoms: C6_9  and  C7_10
REMARK    5  A    between atoms: C7_10  and  N2_11
REMARK    6  A    between atoms: C11_15  and  C12_16
REMARK    7  A    between atoms: N4_20  and  C14_21
REMARK    8  A    between atoms: C14_21  and  C15_22
REMARK                            x       y       z     vdW  Elec       q    Type
REMARK                         _______ _______ _______ _____ _____    ______ ____
ROOT
ATOM      1  C3  UNL     1     148.896 161.580 168.129  0.00  0.00    +0.000 A 
ATOM      2  C4  UNL     1     149.842 161.971 167.187  0.00  0.00    +0.000 A 
ATOM      3  C5  UNL     1     151.100 161.361 167.377  0.00  0.00    +0.000 A 
ATOM      4  C6  UNL     1     152.160 161.330 166.455  0.00  0.00    +0.000 A 
ATOM      5  C13 UNL     1     153.039 160.420 167.001  0.00  0.00    +0.000 A 
ATOM      6  N4  UNL     1     152.628 159.902 168.125  0.00  0.00    +0.000 N 
ATOM      7  C21 UNL     1     151.399 160.491 168.374  0.00  0.00    +0.000 A 
ATOM      8  C22 UNL     1     150.381 160.156 169.280  0.00  0.00    +0.000 A 
ATOM      9  N5  UNL     1     149.188 160.714 169.110  0.00  0.00    +0.000 NA
ENDROOT
BRANCH   1  12
ATOM     10  C1  UNL     1     145.545 163.311 168.660  0.00  0.00    +0.000 C 
ATOM     11  N1  UNL     1     146.909 162.894 168.835  0.00  0.00    +0.000 N 
ATOM     12  C2  UNL     1     147.537 162.034 167.906  0.00  0.00    +0.000 C 
ATOM     13  O2  UNL     1     146.869 161.668 166.891  0.00  0.00    +0.000 OA
BRANCH  11  14
ATOM     14  O1  UNL     1     147.608 163.330 169.917  0.00  0.00    +0.000 OA
ATOM     15  H4  UNL     1     147.051 163.358 170.726  0.00  0.00    +0.000 HD
ENDBRANCH  11  14
ENDBRANCH   1  12
BRANCH   4  16
ATOM     16  C7  UNL     1     152.313 162.245 165.292  0.00  0.00    +0.000 C 
BRANCH  16  17
ATOM     17  N2  UNL     1     153.468 163.087 165.700  0.00  0.00    +0.000 NA
ATOM     18  C8  UNL     1     154.387 162.837 164.514  0.00  0.00    +0.000 C 
ATOM     19  C9  UNL     1     153.683 163.659 163.463  0.00  0.00    +0.000 C 
ATOM     20  C10 UNL     1     153.577 164.982 164.225  0.00  0.00    +0.000 C 
ATOM     21  C11 UNL     1     153.246 164.482 165.583  0.00  0.00    +0.000 C 
BRANCH  21  22
ATOM     22  C12 UNL     1     151.913 164.907 166.060  0.00  0.00    +0.000 C 
ATOM     23  O3  UNL     1     151.685 164.921 167.276  0.00  0.00    +0.000 OA
ATOM     24  N3  UNL     1     150.918 165.306 165.131  0.00  0.00    +0.000 N 
ATOM     25  H15 UNL     1     150.173 164.579 164.939  0.00  0.00    +0.000 HD
ATOM     26  H16 UNL     1     150.894 166.225 164.664  0.00  0.00    +0.000 HD
ENDBRANCH  21  22
ENDBRANCH  16  17
ENDBRANCH   4  16
BRANCH   6  27
ATOM     27  C14 UNL     1     153.230 159.042 169.088  0.00  0.00    +0.000 C 
BRANCH  27  28
ATOM     28  C15 UNL     1     154.666 158.881 169.229  0.00  0.00    +0.000 A 
ATOM     29  C16 UNL     1     155.556 159.834 169.614  0.00  0.00    +0.000 A 
ATOM     30  C17 UNL     1     156.911 159.485 169.731  0.00  0.00    +0.000 A 
ATOM     31  C18 UNL     1     157.387 158.239 169.475  0.00  0.00    +0.000 A 
ATOM     32  F1  UNL     1     158.669 157.881 169.605  0.00  0.00    +0.000 F 
ATOM     33  C19 UNL     1     156.483 157.245 169.069  0.00  0.00    +0.000 A 
ATOM     34  C20 UNL     1     155.167 157.595 168.963  0.00  0.00    +0.000 A 
ENDBRANCH  27  28
ENDBRANCH   6  27
TORSDOF 7
ENDMDL
MODEL 6
REMARK VINA RESULT:      -6.1      8.849     12.993
REMARK  Name = ./3D_structures\o70_MMV1782386_3D.pdb
REMARK  8 active torsions:
REMARK  status: ('A' for Active; 'I' for Inactive)
REMARK    1  A    between atoms: C1_1  and  N1_2
REMARK    2  A    between atoms: N1_2  and  O1_3
REMARK    3  A    between atoms: C2_4  and  C3_6
REMARK    4  A    between atoms: C6_9  and  C7_10
REMARK    5  A    between atoms: C7_10  and  N2_11
REMARK    6  A    between atoms: C11_15  and  C12_16
REMARK    7  A    between atoms: N4_20  and  C14_21
REMARK    8  A    between atoms: C14_21  and  C15_22
REMARK                            x       y       z     vdW  Elec       q    Type
REMARK                         _______ _______ _______ _____ _____    ______ ____
ROOT
ATOM      1  C3  UNL     1     161.424 158.381 166.486  0.00  0.00    +0.000 A 
ATOM      2  C4  UNL     1     160.199 158.628 167.099  0.00  0.00    +0.000 A 
ATOM      3  C5  UNL     1     159.114 158.016 166.437  0.00  0.00    +0.000 A 
ATOM      4  C6  UNL     1     157.816 157.844 166.947  0.00  0.00    +0.000 A 
ATOM      5  C13 UNL     1     157.222 156.989 166.045  0.00  0.00    +0.000 A 
ATOM      6  N4  UNL     1     158.009 156.626 165.070  0.00  0.00    +0.000 N 
ATOM      7  C21 UNL     1     159.212 157.271 165.308  0.00  0.00    +0.000 A 
ATOM      8  C22 UNL     1     160.488 157.077 164.758  0.00  0.00    +0.000 A 
ATOM      9  N5  UNL     1     161.523 157.638 165.374  0.00  0.00    +0.000 NA
ENDROOT
BRANCH   1  12
ATOM     10  C1  UNL     1     164.767 158.343 168.310  0.00  0.00    +0.000 C 
ATOM     11  N1  UNL     1     163.616 157.921 167.560  0.00  0.00    +0.000 N 
ATOM     12  C2  UNL     1     162.604 158.836 167.194  0.00  0.00    +0.000 C 
ATOM     13  O2  UNL     1     162.759 160.053 167.519  0.00  0.00    +0.000 OA
BRANCH  11  14
ATOM     14  O1  UNL     1     163.495 156.615 167.200  0.00  0.00    +0.000 OA
ATOM     15  H4  UNL     1     162.597 156.264 167.391  0.00  0.00    +0.000 HD
ENDBRANCH  11  14
ENDBRANCH   1  12
BRANCH   4  16
ATOM     16  C7  UNL     1     157.234 158.602 168.087  0.00  0.00    +0.000 C 
BRANCH  16  17
ATOM     17  N2  UNL     1     157.143 157.565 169.147  0.00  0.00    +0.000 NA
ATOM     18  C8  UNL     1     158.133 158.145 170.146  0.00  0.00    +0.000 C 
ATOM     19  C9  UNL     1     157.315 159.294 170.683  0.00  0.00    +0.000 C 
ATOM     20  C10 UNL     1     156.043 158.529 171.054  0.00  0.00    +0.000 C 
ATOM     21  C11 UNL     1     155.944 157.600 169.901  0.00  0.00    +0.000 C 
BRANCH  21  22
ATOM     22  C12 UNL     1     154.736 157.811 169.074  0.00  0.00    +0.000 C 
ATOM     23  O3  UNL     1     154.417 156.951 168.244  0.00  0.00    +0.000 OA
ATOM     24  N3  UNL     1     153.952 158.981 169.247  0.00  0.00    +0.000 N 
ATOM     25  H15 UNL     1     154.097 159.725 168.508  0.00  0.00    +0.000 HD
ATOM     26  H16 UNL     1     153.283 159.122 170.018  0.00  0.00    +0.000 HD
ENDBRANCH  21  22
ENDBRANCH  16  17
ENDBRANCH   4  16
BRANCH   6  27
ATOM     27  C14 UNL     1     157.809 155.879 163.874  0.00  0.00    +0.000 C 
BRANCH  27  28
ATOM     28  C15 UNL     1     158.037 154.448 163.777  0.00  0.00    +0.000 A 
ATOM     29  C16 UNL     1     158.681 153.665 164.684  0.00  0.00    +0.000 A 
ATOM     30  C17 UNL     1     158.774 152.286 164.438  0.00  0.00    +0.000 A 
ATOM     31  C18 UNL     1     158.257 151.685 163.335  0.00  0.00    +0.000 A 
ATOM     32  F1  UNL     1     158.315 150.370 163.097  0.00  0.00    +0.000 F 
ATOM     33  C19 UNL     1     157.597 152.480 162.386  0.00  0.00    +0.000 A 
ATOM     34  C20 UNL     1     157.508 153.820 162.637  0.00  0.00    +0.000 A 
ENDBRANCH  27  28
ENDBRANCH   6  27
TORSDOF 7
ENDMDL
MODEL 7
REMARK VINA RESULT:      -6.1      9.532     13.482
REMARK  Name = ./3D_structures\o70_MMV1782386_3D.pdb
REMARK  8 active torsions:
REMARK  status: ('A' for Active; 'I' for Inactive)
REMARK    1  A    between atoms: C1_1  and  N1_2
REMARK    2  A    between atoms: N1_2  and  O1_3
REMARK    3  A    between atoms: C2_4  and  C3_6
REMARK    4  A    between atoms: C6_9  and  C7_10
REMARK    5  A    between atoms: C7_10  and  N2_11
REMARK    6  A    between atoms: C11_15  and  C12_16
REMARK    7  A    between atoms: N4_20  and  C14_21
REMARK    8  A    between atoms: C14_21  and  C15_22
REMARK                            x       y       z     vdW  Elec       q    Type
REMARK                         _______ _______ _______ _____ _____    ______ ____
ROOT
ATOM      1  C3  UNL     1     159.333 156.008 164.862  0.00  0.00    +0.000 A 
ATOM      2  C4  UNL     1     158.778 156.827 165.839  0.00  0.00    +0.000 A 
ATOM      3  C5  UNL     1     159.694 157.759 166.370  0.00  0.00    +0.000 A 
ATOM      4  C6  UNL     1     159.381 158.885 167.152  0.00  0.00    +0.000 A 
ATOM      5  C13 UNL     1     160.564 159.589 167.196  0.00  0.00    +0.000 A 
ATOM      6  N4  UNL     1     161.535 159.026 166.532  0.00  0.00    +0.000 N 
ATOM      7  C21 UNL     1     160.995 157.865 166.003  0.00  0.00    +0.000 A 
ATOM      8  C22 UNL     1     161.470 156.995 165.010  0.00  0.00    +0.000 A 
ATOM      9  N5  UNL     1     160.618 156.117 164.492  0.00  0.00    +0.000 NA
ENDROOT
BRANCH   1  12
ATOM     10  C1  UNL     1     157.854 152.898 163.233  0.00  0.00    +0.000 C 
ATOM     11  N1  UNL     1     158.722 153.767 163.980  0.00  0.00    +0.000 N 
ATOM     12  C2  UNL     1     158.418 155.136 164.152  0.00  0.00    +0.000 C 
ATOM     13  O2  UNL     1     157.334 155.569 163.654  0.00  0.00    +0.000 OA
BRANCH  11  14
ATOM     14  O1  UNL     1     159.860 153.264 164.529  0.00  0.00    +0.000 OA
ATOM     15  H4  UNL     1     159.960 153.525 165.471  0.00  0.00    +0.000 HD
ENDBRANCH  11  14
ENDBRANCH   1  12
BRANCH   4  16
ATOM     16  C7  UNL     1     158.105 159.090 167.889  0.00  0.00    +0.000 C 
BRANCH  16  17
ATOM     17  N2  UNL     1     158.009 157.854 168.709  0.00  0.00    +0.000 NA
ATOM     18  C8  UNL     1     158.639 158.364 169.997  0.00  0.00    +0.000 C 
ATOM     19  C9  UNL     1     157.518 159.234 170.508  0.00  0.00    +0.000 C 
ATOM     20  C10 UNL     1     156.375 158.220 170.433  0.00  0.00    +0.000 C 
ATOM     21  C11 UNL     1     156.699 157.545 169.152  0.00  0.00    +0.000 C 
BRANCH  21  22
ATOM     22  C12 UNL     1     155.667 157.731 168.109  0.00  0.00    +0.000 C 
ATOM     23  O3  UNL     1     155.616 156.933 167.164  0.00  0.00    +0.000 OA
ATOM     24  N3  UNL     1     154.743 158.804 168.205  0.00  0.00    +0.000 N 
ATOM     25  H15 UNL     1     154.954 159.628 167.576  0.00  0.00    +0.000 HD
ATOM     26  H16 UNL     1     153.921 158.807 168.827  0.00  0.00    +0.000 HD
ENDBRANCH  21  22
ENDBRANCH  16  17
ENDBRANCH   4  16
BRANCH   6  27
ATOM     27  C14 UNL     1     162.925 159.308 166.398  0.00  0.00    +0.000 C 
BRANCH  27  28
ATOM     28  C15 UNL     1     163.803 159.557 167.527  0.00  0.00    +0.000 A 
ATOM     29  C16 UNL     1     163.966 160.736 168.185  0.00  0.00    +0.000 A 
ATOM     30  C17 UNL     1     164.836 160.780 169.285  0.00  0.00    +0.000 A 
ATOM     31  C18 UNL     1     165.535 159.704 169.731  0.00  0.00    +0.000 A 
ATOM     32  F1  UNL     1     166.349 159.721 170.791  0.00  0.00    +0.000 F 
ATOM     33  C19 UNL     1     165.385 158.482 169.058  0.00  0.00    +0.000 A 
ATOM     34  C20 UNL     1     164.532 158.448 167.992  0.00  0.00    +0.000 A 
ENDBRANCH  27  28
ENDBRANCH   6  27
TORSDOF 7
ENDMDL
MODEL 8
REMARK VINA RESULT:      -6.1      3.045      5.074
REMARK  Name = ./3D_structures\o70_MMV1782386_3D.pdb
REMARK  8 active torsions:
REMARK  status: ('A' for Active; 'I' for Inactive)
REMARK    1  A    between atoms: C1_1  and  N1_2
REMARK    2  A    between atoms: N1_2  and  O1_3
REMARK    3  A    between atoms: C2_4  and  C3_6
REMARK    4  A    between atoms: C6_9  and  C7_10
REMARK    5  A    between atoms: C7_10  and  N2_11
REMARK    6  A    between atoms: C11_15  and  C12_16
REMARK    7  A    between atoms: N4_20  and  C14_21
REMARK    8  A    between atoms: C14_21  and  C15_22
REMARK                            x       y       z     vdW  Elec       q    Type
REMARK                         _______ _______ _______ _____ _____    ______ ____
ROOT
ATOM      1  C3  UNL     1     150.573 166.133 169.664  0.00  0.00    +0.000 A 
ATOM      2  C4  UNL     1     149.343 165.835 169.085  0.00  0.00    +0.000 A 
ATOM      3  C5  UNL     1     149.233 164.490 168.675  0.00  0.00    +0.000 A 
ATOM      4  C6  UNL     1     148.050 163.820 168.320  0.00  0.00    +0.000 A 
ATOM      5  C13 UNL     1     148.433 162.498 168.250  0.00  0.00    +0.000 A 
ATOM      6  N4  UNL     1     149.693 162.302 168.527  0.00  0.00    +0.000 N 
ATOM      7  C21 UNL     1     150.210 163.558 168.799  0.00  0.00    +0.000 A 
ATOM      8  C22 UNL     1     151.420 163.949 169.393  0.00  0.00    +0.000 A 
ATOM      9  N5  UNL     1     151.537 165.211 169.794  0.00  0.00    +0.000 NA
ENDROOT
BRANCH   1  12
ATOM     10  C1  UNL     1     150.925 168.886 172.273  0.00  0.00    +0.000 C 
ATOM     11  N1  UNL     1     150.847 167.589 171.658  0.00  0.00    +0.000 N 
ATOM     12  C2  UNL     1     150.705 167.448 170.259  0.00  0.00    +0.000 C 
ATOM     13  O2  UNL     1     150.681 168.504 169.557  0.00  0.00    +0.000 OA
BRANCH  11  14
ATOM     14  O1  UNL     1     150.908 166.476 172.436  0.00  0.00    +0.000 OA
ATOM     15  H4  UNL     1     150.099 166.367 172.984  0.00  0.00    +0.000 HD
ENDBRANCH  11  14
ENDBRANCH   1  12
BRANCH   4  16
ATOM     16  C7  UNL     1     146.774 164.478 167.933  0.00  0.00    +0.000 C 
BRANCH  16  17
ATOM     17  N2  UNL     1     146.605 164.039 166.523  0.00  0.00    +0.000 NA
ATOM     18  C8  UNL     1     145.399 163.126 166.692  0.00  0.00    +0.000 C 
ATOM     19  C9  UNL     1     144.317 164.158 166.889  0.00  0.00    +0.000 C 
ATOM     20  C10 UNL     1     144.591 165.029 165.662  0.00  0.00    +0.000 C 
ATOM     21  C11 UNL     1     146.075 165.030 165.660  0.00  0.00    +0.000 C 
BRANCH  21  22
ATOM     22  C12 UNL     1     146.665 166.370 165.871  0.00  0.00    +0.000 C 
ATOM     23  O3  UNL     1     145.916 167.325 166.114  0.00  0.00    +0.000 OA
ATOM     24  N3  UNL     1     148.071 166.546 165.810  0.00  0.00    +0.000 N 
ATOM     25  H15 UNL     1     148.425 166.974 164.909  0.00  0.00    +0.000 HD
ATOM     26  H16 UNL     1     148.722 166.289 166.567  0.00  0.00    +0.000 HD
ENDBRANCH  21  22
ENDBRANCH  16  17
ENDBRANCH   4  16
BRANCH   6  27
ATOM     27  C14 UNL     1     150.545 161.162 168.466  0.00  0.00    +0.000 C 
BRANCH  27  28
ATOM     28  C15 UNL     1     151.524 160.952 167.414  0.00  0.00    +0.000 A 
ATOM     29  C16 UNL     1     151.411 161.327 166.112  0.00  0.00    +0.000 A 
ATOM     30  C17 UNL     1     152.482 161.071 165.241  0.00  0.00    +0.000 A 
ATOM     31  C18 UNL     1     153.633 160.462 165.628  0.00  0.00    +0.000 A 
ATOM     32  F1  UNL     1     154.673 160.233 164.819  0.00  0.00    +0.000 F 
ATOM     33  C19 UNL     1     153.763 160.062 166.966  0.00  0.00    +0.000 A 
ATOM     34  C20 UNL     1     152.717 160.320 167.807  0.00  0.00    +0.000 A 
ENDBRANCH  27  28
ENDBRANCH   6  27
TORSDOF 7
ENDMDL
MODEL 9
REMARK VINA RESULT:      -6.0      9.279     13.012
REMARK  Name = ./3D_structures\o70_MMV1782386_3D.pdb
REMARK  8 active torsions:
REMARK  status: ('A' for Active; 'I' for Inactive)
REMARK    1  A    between atoms: C1_1  and  N1_2
REMARK    2  A    between atoms: N1_2  and  O1_3
REMARK    3  A    between atoms: C2_4  and  C3_6
REMARK    4  A    between atoms: C6_9  and  C7_10
REMARK    5  A    between atoms: C7_10  and  N2_11
REMARK    6  A    between atoms: C11_15  and  C12_16
REMARK    7  A    between atoms: N4_20  and  C14_21
REMARK    8  A    between atoms: C14_21  and  C15_22
REMARK                            x       y       z     vdW  Elec       q    Type
REMARK                         _______ _______ _______ _____ _____    ______ ____
ROOT
ATOM      1  C3  UNL     1     158.728 155.179 164.321  0.00  0.00    +0.000 A 
ATOM      2  C4  UNL     1     158.051 155.633 165.450  0.00  0.00    +0.000 A 
ATOM      3  C5  UNL     1     158.688 156.723 166.078  0.00  0.00    +0.000 A 
ATOM      4  C6  UNL     1     158.129 157.569 167.051  0.00  0.00    +0.000 A 
ATOM      5  C13 UNL     1     159.038 158.599 167.149  0.00  0.00    +0.000 A 
ATOM      6  N4  UNL     1     160.061 158.473 166.349  0.00  0.00    +0.000 N 
ATOM      7  C21 UNL     1     159.850 157.288 165.665  0.00  0.00    +0.000 A 
ATOM      8  C22 UNL     1     160.464 156.763 164.517  0.00  0.00    +0.000 A 
ATOM      9  N5  UNL     1     159.872 155.741 163.907  0.00  0.00    +0.000 NA
ENDROOT
BRANCH   1  12
ATOM     10  C1  UNL     1     157.610 151.782 163.009  0.00  0.00    +0.000 C 
ATOM     11  N1  UNL     1     158.224 152.799 163.818  0.00  0.00    +0.000 N 
ATOM     12  C2  UNL     1     158.055 154.171 163.527  0.00  0.00    +0.000 C 
ATOM     13  O2  UNL     1     157.312 154.480 162.545  0.00  0.00    +0.000 OA
BRANCH  11  14
ATOM     14  O1  UNL     1     158.988 152.435 164.883  0.00  0.00    +0.000 OA
ATOM     15  H4  UNL     1     159.073 151.458 164.957  0.00  0.00    +0.000 HD
ENDBRANCH  11  14
ENDBRANCH   1  12
BRANCH   4  16
ATOM     16  C7  UNL     1     156.934 157.252 167.879  0.00  0.00    +0.000 C 
BRANCH  16  17
ATOM     17  N2  UNL     1     156.478 158.599 168.308  0.00  0.00    +0.000 NA
ATOM     18  C8  UNL     1     155.350 158.808 167.308  0.00  0.00    +0.000 C 
ATOM     19  C9  UNL     1     154.318 157.868 167.881  0.00  0.00    +0.000 C 
ATOM     20  C10 UNL     1     154.312 158.372 169.326  0.00  0.00    +0.000 C 
ATOM     21  C11 UNL     1     155.762 158.613 169.531  0.00  0.00    +0.000 C 
BRANCH  21  22
ATOM     22  C12 UNL     1     156.362 157.752 170.573  0.00  0.00    +0.000 C 
ATOM     23  O3  UNL     1     157.372 158.145 171.170  0.00  0.00    +0.000 OA
ATOM     24  N3  UNL     1     155.773 156.500 170.888  0.00  0.00    +0.000 N 
ATOM     25  H15 UNL     1     156.269 155.661 170.477  0.00  0.00    +0.000 HD
ATOM     26  H16 UNL     1     154.930 156.386 171.471  0.00  0.00    +0.000 HD
ENDBRANCH  21  22
ENDBRANCH  16  17
ENDBRANCH   4  16
BRANCH   6  27
ATOM     27  C14 UNL     1     161.277 159.199 166.190  0.00  0.00    +0.000 C 
BRANCH  27  28
ATOM     28  C15 UNL     1     162.471 158.939 166.974  0.00  0.00    +0.000 A 
ATOM     29  C16 UNL     1     162.970 157.721 167.316  0.00  0.00    +0.000 A 
ATOM     30  C17 UNL     1     164.164 157.664 168.052  0.00  0.00    +0.000 A 
ATOM     31  C18 UNL     1     164.853 158.766 168.449  0.00  0.00    +0.000 A 
ATOM     32  F1  UNL     1     166.004 158.730 169.129  0.00  0.00    +0.000 F 
ATOM     33  C19 UNL     1     164.348 160.030 168.112  0.00  0.00    +0.000 A 
ATOM     34  C20 UNL     1     163.188 160.075 167.391  0.00  0.00    +0.000 A 
ENDBRANCH  27  28
ENDBRANCH   6  27
TORSDOF 7
ENDMDL
