MODEL 1
REMARK VINA RESULT:      -6.5      0.000      0.000
REMARK  Name = ./3D_structures\o74_MMV690555_3D.pdb
REMARK  3 active torsions:
REMARK  status: ('A' for Active; 'I' for Inactive)
REMARK    1  A    between atoms: C1_2  and  C2_5
REMARK    2  A    between atoms: C8_13  and  C10_16
REMARK    3  A    between atoms: C12_21  and  C14_23
REMARK                            x       y       z     vdW  Elec       q    Type
REMARK                         _______ _______ _______ _____ _____    ______ ____
ROOT
ATOM      1  C2  UNL     1     153.135 161.441 166.092  0.00  0.00    +0.000 A 
ATOM      2  N1  UNL     1     152.052 162.094 166.517  0.00  0.00    +0.000 NA
ATOM      3  C3  UNL     1     151.710 163.267 165.981  0.00  0.00    +0.000 A 
ATOM      4  C4  UNL     1     152.477 163.837 164.957  0.00  0.00    +0.000 A 
ATOM      5  C5  UNL     1     152.149 165.062 164.422  0.00  0.00    +0.000 A 
ATOM      6  C6  UNL     1     151.053 165.720 164.897  0.00  0.00    +0.000 A 
ATOM      7  C7  UNL     1     150.277 165.163 165.920  0.00  0.00    +0.000 A 
ATOM      8  N2  UNL     1     149.187 165.562 166.596  0.00  0.00    +0.000 NA
ATOM      9  C8  UNL     1     148.841 164.644 167.512  0.00  0.00    +0.000 A 
ATOM     10  C9  UNL     1     149.749 163.648 167.387  0.00  0.00    +0.000 A 
ATOM     11  N3  UNL     1     150.651 163.960 166.409  0.00  0.00    +0.000 N 
ATOM     12  C12 UNL     1     153.585 163.145 164.527  0.00  0.00    +0.000 A 
ATOM     13  C13 UNL     1     153.941 161.930 165.088  0.00  0.00    +0.000 A 
ENDROOT
BRANCH   9  14
ATOM     14  C10 UNL     1     147.733 164.665 168.439  0.00  0.00    +0.000 A 
ATOM     15  N4  UNL     1     146.481 165.169 168.189  0.00  0.00    +0.000 NA
ATOM     16  N5  UNL     1     145.731 165.026 169.241  0.00  0.00    +0.000 NA
ATOM     17  C11 UNL     1     146.499 164.425 170.190  0.00  0.00    +0.000 A 
ATOM     18  O1  UNL     1     147.659 164.243 169.660  0.00  0.00    +0.000 OA
ENDBRANCH   9  14
BRANCH   1  20
ATOM     19  F1  UNL     1     153.481 159.156 165.740  0.00  0.00    +0.000 F 
ATOM     20  C1  UNL     1     153.519 160.140 166.719  0.00  0.00    +0.000 C 
ATOM     21  F2  UNL     1     154.837 160.316 167.162  0.00  0.00    +0.000 F 
ATOM     22  F3  UNL     1     152.629 159.869 167.743  0.00  0.00    +0.000 F 
ENDBRANCH   1  20
BRANCH  12  23
ATOM     23  C14 UNL     1     154.423 163.726 163.473  0.00  0.00    +0.000 C 
ATOM     24  F4  UNL     1     153.841 163.717 162.220  0.00  0.00    +0.000 F 
ATOM     25  F5  UNL     1     155.581 162.941 163.339  0.00  0.00    +0.000 F 
ATOM     26  F6  UNL     1     154.888 164.966 163.871  0.00  0.00    +0.000 F 
ENDBRANCH  12  23
TORSDOF 3
ENDMDL
MODEL 2
REMARK VINA RESULT:      -6.4      4.508      6.461
REMARK  Name = ./3D_structures\o74_MMV690555_3D.pdb
REMARK  3 active torsions:
REMARK  status: ('A' for Active; 'I' for Inactive)
REMARK    1  A    between atoms: C1_2  and  C2_5
REMARK    2  A    between atoms: C8_13  and  C10_16
REMARK    3  A    between atoms: C12_21  and  C14_23
REMARK                            x       y       z     vdW  Elec       q    Type
REMARK                         _______ _______ _______ _____ _____    ______ ____
ROOT
ATOM      1  C2  UNL     1     155.494 158.374 168.056  0.00  0.00    +0.000 A 
ATOM      2  N1  UNL     1     154.312 158.979 168.188  0.00  0.00    +0.000 NA
ATOM      3  C3  UNL     1     153.957 159.534 169.348  0.00  0.00    +0.000 A 
ATOM      4  C4  UNL     1     154.818 159.499 170.452  0.00  0.00    +0.000 A 
ATOM      5  C5  UNL     1     154.445 160.041 171.661  0.00  0.00    +0.000 A 
ATOM      6  C6  UNL     1     153.218 160.625 171.775  0.00  0.00    +0.000 A 
ATOM      7  C7  UNL     1     152.347 160.668 170.681  0.00  0.00    +0.000 A 
ATOM      8  N2  UNL     1     151.103 161.138 170.487  0.00  0.00    +0.000 NA
ATOM      9  C8  UNL     1     150.705 160.907 169.226  0.00  0.00    +0.000 A 
ATOM     10  C9  UNL     1     151.744 160.279 168.628  0.00  0.00    +0.000 A 
ATOM     11  N3  UNL     1     152.766 160.116 169.520  0.00  0.00    +0.000 N 
ATOM     12  C12 UNL     1     156.035 158.879 170.294  0.00  0.00    +0.000 A 
ATOM     13  C13 UNL     1     156.400 158.299 169.091  0.00  0.00    +0.000 A 
ENDROOT
BRANCH   9  14
ATOM     14  C10 UNL     1     149.453 161.256 168.596  0.00  0.00    +0.000 A 
ATOM     15  N4  UNL     1     149.045 160.871 167.343  0.00  0.00    +0.000 NA
ATOM     16  N5  UNL     1     147.868 161.364 167.093  0.00  0.00    +0.000 NA
ATOM     17  C11 UNL     1     147.502 162.080 168.191  0.00  0.00    +0.000 A 
ATOM     18  O1  UNL     1     148.473 161.980 169.031  0.00  0.00    +0.000 OA
ENDBRANCH   9  14
BRANCH   1  20
ATOM     19  F1  UNL     1     156.799 158.549 166.124  0.00  0.00    +0.000 F 
ATOM     20  C1  UNL     1     155.868 157.737 166.758  0.00  0.00    +0.000 C 
ATOM     21  F2  UNL     1     156.463 156.515 167.102  0.00  0.00    +0.000 F 
ATOM     22  F3  UNL     1     154.722 157.591 165.996  0.00  0.00    +0.000 F 
ENDBRANCH   1  20
BRANCH  12  23
ATOM     23  C14 UNL     1     156.950 158.804 171.437  0.00  0.00    +0.000 C 
ATOM     24  F4  UNL     1     157.329 160.034 171.938  0.00  0.00    +0.000 F 
ATOM     25  F5  UNL     1     158.148 158.202 171.013  0.00  0.00    +0.000 F 
ATOM     26  F6  UNL     1     156.444 157.937 172.389  0.00  0.00    +0.000 F 
ENDBRANCH  12  23
TORSDOF 3
ENDMDL
MODEL 3
REMARK VINA RESULT:      -6.4      3.441      5.594
REMARK  Name = ./3D_structures\o74_MMV690555_3D.pdb
REMARK  3 active torsions:
REMARK  status: ('A' for Active; 'I' for Inactive)
REMARK    1  A    between atoms: C1_2  and  C2_5
REMARK    2  A    between atoms: C8_13  and  C10_16
REMARK    3  A    between atoms: C12_21  and  C14_23
REMARK                            x       y       z     vdW  Elec       q    Type
REMARK                         _______ _______ _______ _____ _____    ______ ____
ROOT
ATOM      1  C2  UNL     1     150.807 165.025 166.282  0.00  0.00    +0.000 A 
ATOM      2  N1  UNL     1     149.475 165.102 166.275  0.00  0.00    +0.000 NA
ATOM      3  C3  UNL     1     148.781 165.013 167.410  0.00  0.00    +0.000 A 
ATOM      4  C4  UNL     1     149.434 164.844 168.638  0.00  0.00    +0.000 A 
ATOM      5  C5  UNL     1     148.724 164.720 169.810  0.00  0.00    +0.000 A 
ATOM      6  C6  UNL     1     147.362 164.771 169.767  0.00  0.00    +0.000 A 
ATOM      7  C7  UNL     1     146.695 164.941 168.549  0.00  0.00    +0.000 A 
ATOM      8  N2  UNL     1     145.403 165.007 168.186  0.00  0.00    +0.000 NA
ATOM      9  C8  UNL     1     145.296 165.162 166.857  0.00  0.00    +0.000 A 
ATOM     10  C9  UNL     1     146.567 165.197 166.394  0.00  0.00    +0.000 A 
ATOM     11  N3  UNL     1     147.445 165.053 167.430  0.00  0.00    +0.000 N 
ATOM     12  C12 UNL     1     150.808 164.776 168.626  0.00  0.00    +0.000 A 
ATOM     13  C13 UNL     1     151.526 164.862 167.445  0.00  0.00    +0.000 A 
ENDROOT
BRANCH   9  14
ATOM     14  C10 UNL     1     144.101 165.290 166.055  0.00  0.00    +0.000 A 
ATOM     15  N4  UNL     1     143.568 166.463 165.581  0.00  0.00    +0.000 NA
ATOM     16  N5  UNL     1     142.491 166.213 164.897  0.00  0.00    +0.000 NA
ATOM     17  C11 UNL     1     142.315 164.863 164.925  0.00  0.00    +0.000 A 
ATOM     18  O1  UNL     1     143.288 164.383 165.620  0.00  0.00    +0.000 OA
ENDBRANCH   9  14
BRANCH   1  20
ATOM     19  F1  UNL     1     151.099 166.191 164.277  0.00  0.00    +0.000 F 
ATOM     20  C1  UNL     1     151.568 165.102 164.999  0.00  0.00    +0.000 C 
ATOM     21  F2  UNL     1     152.902 165.322 165.372  0.00  0.00    +0.000 F 
ATOM     22  F3  UNL     1     151.382 163.918 164.308  0.00  0.00    +0.000 F 
ENDBRANCH   1  20
BRANCH  12  23
ATOM     23  C14 UNL     1     151.522 164.574 169.891  0.00  0.00    +0.000 C 
ATOM     24  F4  UNL     1     151.441 165.644 170.761  0.00  0.00    +0.000 F 
ATOM     25  F5  UNL     1     152.893 164.438 169.614  0.00  0.00    +0.000 F 
ATOM     26  F6  UNL     1     151.158 163.362 170.449  0.00  0.00    +0.000 F 
ENDBRANCH  12  23
TORSDOF 3
ENDMDL
MODEL 4
REMARK VINA RESULT:      -6.3      4.121      5.885
REMARK  Name = ./3D_structures\o74_MMV690555_3D.pdb
REMARK  3 active torsions:
REMARK  status: ('A' for Active; 'I' for Inactive)
REMARK    1  A    between atoms: C1_2  and  C2_5
REMARK    2  A    between atoms: C8_13  and  C10_16
REMARK    3  A    between atoms: C12_21  and  C14_23
REMARK                            x       y       z     vdW  Elec       q    Type
REMARK                         _______ _______ _______ _____ _____    ______ ____
ROOT
ATOM      1  C2  UNL     1     156.125 158.353 169.806  0.00  0.00    +0.000 A 
ATOM      2  N1  UNL     1     155.042 159.106 169.604  0.00  0.00    +0.000 NA
ATOM      3  C3  UNL     1     154.546 159.270 168.377  0.00  0.00    +0.000 A 
ATOM      4  C4  UNL     1     155.146 158.652 167.273  0.00  0.00    +0.000 A 
ATOM      5  C5  UNL     1     154.659 158.842 165.999  0.00  0.00    +0.000 A 
ATOM      6  C6  UNL     1     153.569 159.642 165.820  0.00  0.00    +0.000 A 
ATOM      7  C7  UNL     1     152.958 160.266 166.914  0.00  0.00    +0.000 A 
ATOM      8  N2  UNL     1     151.917 161.103 167.057  0.00  0.00    +0.000 NA
ATOM      9  C8  UNL     1     151.751 161.430 168.348  0.00  0.00    +0.000 A 
ATOM     10  C9  UNL     1     152.722 160.764 169.017  0.00  0.00    +0.000 A 
ATOM     11  N3  UNL     1     153.483 160.045 168.140  0.00  0.00    +0.000 N 
ATOM     12  C12 UNL     1     156.257 157.873 167.502  0.00  0.00    +0.000 A 
ATOM     13  C13 UNL     1     156.773 157.708 168.776  0.00  0.00    +0.000 A 
ENDROOT
BRANCH   9  14
ATOM     14  C10 UNL     1     150.751 162.286 168.943  0.00  0.00    +0.000 A 
ATOM     15  N4  UNL     1     149.440 161.955 169.176  0.00  0.00    +0.000 NA
ATOM     16  N5  UNL     1     148.822 162.961 169.722  0.00  0.00    +0.000 NA
ATOM     17  C11 UNL     1     149.738 163.961 169.846  0.00  0.00    +0.000 A 
ATOM     18  O1  UNL     1     150.844 163.504 169.370  0.00  0.00    +0.000 OA
ENDBRANCH   9  14
BRANCH   1  20
ATOM     19  F1  UNL     1     156.197 159.234 171.970  0.00  0.00    +0.000 F 
ATOM     20  C1  UNL     1     156.683 158.199 171.183  0.00  0.00    +0.000 C 
ATOM     21  F2  UNL     1     156.184 156.975 171.650  0.00  0.00    +0.000 F 
ATOM     22  F3  UNL     1     158.064 158.230 171.102  0.00  0.00    +0.000 F 
ENDBRANCH   1  20
BRANCH  12  23
ATOM     23  C14 UNL     1     156.924 157.231 166.365  0.00  0.00    +0.000 C 
ATOM     24  F4  UNL     1     156.115 156.370 165.649  0.00  0.00    +0.000 F 
ATOM     25  F5  UNL     1     157.966 156.425 166.854  0.00  0.00    +0.000 F 
ATOM     26  F6  UNL     1     157.558 158.187 165.590  0.00  0.00    +0.000 F 
ENDBRANCH  12  23
TORSDOF 3
ENDMDL
MODEL 5
REMARK VINA RESULT:      -6.2      7.296     10.220
REMARK  Name = ./3D_structures\o74_MMV690555_3D.pdb
REMARK  3 active torsions:
REMARK  status: ('A' for Active; 'I' for Inactive)
REMARK    1  A    between atoms: C1_2  and  C2_5
REMARK    2  A    between atoms: C8_13  and  C10_16
REMARK    3  A    between atoms: C12_21  and  C14_23
REMARK                            x       y       z     vdW  Elec       q    Type
REMARK                         _______ _______ _______ _____ _____    ______ ____
ROOT
ATOM      1  C2  UNL     1     156.270 158.940 170.392  0.00  0.00    +0.000 A 
ATOM      2  N1  UNL     1     156.743 158.293 169.326  0.00  0.00    +0.000 NA
ATOM      3  C3  UNL     1     156.042 158.242 168.193  0.00  0.00    +0.000 A 
ATOM      4  C4  UNL     1     154.795 158.873 168.093  0.00  0.00    +0.000 A 
ATOM      5  C5  UNL     1     154.051 158.798 166.938  0.00  0.00    +0.000 A 
ATOM      6  C6  UNL     1     154.547 158.103 165.874  0.00  0.00    +0.000 A 
ATOM      7  C7  UNL     1     155.791 157.469 165.958  0.00  0.00    +0.000 A 
ATOM      8  N2  UNL     1     156.520 156.714 165.118  0.00  0.00    +0.000 NA
ATOM      9  C8  UNL     1     157.663 156.327 165.707  0.00  0.00    +0.000 A 
ATOM     10  C9  UNL     1     157.633 156.869 166.947  0.00  0.00    +0.000 A 
ATOM     11  N3  UNL     1     156.475 157.573 167.120  0.00  0.00    +0.000 N 
ATOM     12  C12 UNL     1     154.328 159.543 169.200  0.00  0.00    +0.000 A 
ATOM     13  C13 UNL     1     155.055 159.589 170.377  0.00  0.00    +0.000 A 
ENDROOT
BRANCH   9  14
ATOM     14  C10 UNL     1     158.732 155.522 165.163  0.00  0.00    +0.000 A 
ATOM     15  N4  UNL     1     158.686 154.171 164.925  0.00  0.00    +0.000 NA
ATOM     16  N5  UNL     1     159.821 153.772 164.433  0.00  0.00    +0.000 NA
ATOM     17  C11 UNL     1     160.620 154.871 164.350  0.00  0.00    +0.000 A 
ATOM     18  O1  UNL     1     159.925 155.860 164.795  0.00  0.00    +0.000 OA
ENDBRANCH   9  14
BRANCH   1  20
ATOM     19  F1  UNL     1     156.391 158.195 172.604  0.00  0.00    +0.000 F 
ATOM     20  C1  UNL     1     157.056 158.967 171.662  0.00  0.00    +0.000 C 
ATOM     21  F2  UNL     1     158.287 158.374 171.349  0.00  0.00    +0.000 F 
ATOM     22  F3  UNL     1     157.174 160.282 172.076  0.00  0.00    +0.000 F 
ENDBRANCH   1  20
BRANCH  12  23
ATOM     23  C14 UNL     1     153.015 160.192 169.138  0.00  0.00    +0.000 C 
ATOM     24  F4  UNL     1     152.937 161.220 168.217  0.00  0.00    +0.000 F 
ATOM     25  F5  UNL     1     152.757 160.799 170.379  0.00  0.00    +0.000 F 
ATOM     26  F6  UNL     1     152.022 159.238 169.005  0.00  0.00    +0.000 F 
ENDBRANCH  12  23
TORSDOF 3
ENDMDL
MODEL 6
REMARK VINA RESULT:      -6.2      4.438      6.479
REMARK  Name = ./3D_structures\o74_MMV690555_3D.pdb
REMARK  3 active torsions:
REMARK  status: ('A' for Active; 'I' for Inactive)
REMARK    1  A    between atoms: C1_2  and  C2_5
REMARK    2  A    between atoms: C8_13  and  C10_16
REMARK    3  A    between atoms: C12_21  and  C14_23
REMARK                            x       y       z     vdW  Elec       q    Type
REMARK                         _______ _______ _______ _____ _____    ______ ____
ROOT
ATOM      1  C2  UNL     1     155.385 159.871 171.814  0.00  0.00    +0.000 A 
ATOM      2  N1  UNL     1     154.311 160.222 171.105  0.00  0.00    +0.000 NA
ATOM      3  C3  UNL     1     154.230 159.936 169.804  0.00  0.00    +0.000 A 
ATOM      4  C4  UNL     1     155.268 159.257 169.154  0.00  0.00    +0.000 A 
ATOM      5  C5  UNL     1     155.206 158.987 167.806  0.00  0.00    +0.000 A 
ATOM      6  C6  UNL     1     154.108 159.384 167.101  0.00  0.00    +0.000 A 
ATOM      7  C7  UNL     1     153.063 160.063 167.737  0.00  0.00    +0.000 A 
ATOM      8  N2  UNL     1     151.895 160.588 167.326  0.00  0.00    +0.000 NA
ATOM      9  C8  UNL     1     151.252 161.162 168.354  0.00  0.00    +0.000 A 
ATOM     10  C9  UNL     1     152.051 160.976 169.431  0.00  0.00    +0.000 A 
ATOM     11  N3  UNL     1     153.181 160.304 169.062  0.00  0.00    +0.000 N 
ATOM     12  C12 UNL     1     156.364 158.896 169.903  0.00  0.00    +0.000 A 
ATOM     13  C13 UNL     1     156.448 159.199 171.252  0.00  0.00    +0.000 A 
ENDROOT
BRANCH   9  14
ATOM     14  C10 UNL     1     149.969 161.827 168.360  0.00  0.00    +0.000 A 
ATOM     15  N4  UNL     1     149.274 162.231 169.472  0.00  0.00    +0.000 NA
ATOM     16  N5  UNL     1     148.158 162.795 169.113  0.00  0.00    +0.000 NA
ATOM     17  C11 UNL     1     148.121 162.757 167.753  0.00  0.00    +0.000 A 
ATOM     18  O1  UNL     1     149.207 162.176 167.375  0.00  0.00    +0.000 OA
ENDBRANCH   9  14
BRANCH   1  20
ATOM     19  F1  UNL     1     154.244 160.729 173.665  0.00  0.00    +0.000 F 
ATOM     20  C1  UNL     1     155.472 160.220 173.264  0.00  0.00    +0.000 C 
ATOM     21  F2  UNL     1     155.718 159.007 173.923  0.00  0.00    +0.000 F 
ATOM     22  F3  UNL     1     156.484 161.148 173.431  0.00  0.00    +0.000 F 
ENDBRANCH   1  20
BRANCH  12  23
ATOM     23  C14 UNL     1     157.479 158.206 169.248  0.00  0.00    +0.000 C 
ATOM     24  F4  UNL     1     157.182 156.923 168.833  0.00  0.00    +0.000 F 
ATOM     25  F5  UNL     1     158.520 158.052 170.180  0.00  0.00    +0.000 F 
ATOM     26  F6  UNL     1     158.015 159.011 168.259  0.00  0.00    +0.000 F 
ENDBRANCH  12  23
TORSDOF 3
ENDMDL
MODEL 7
REMARK VINA RESULT:      -6.1      6.986     10.042
REMARK  Name = ./3D_structures\o74_MMV690555_3D.pdb
REMARK  3 active torsions:
REMARK  status: ('A' for Active; 'I' for Inactive)
REMARK    1  A    between atoms: C1_2  and  C2_5
REMARK    2  A    between atoms: C8_13  and  C10_16
REMARK    3  A    between atoms: C12_21  and  C14_23
REMARK                            x       y       z     vdW  Elec       q    Type
REMARK                         _______ _______ _______ _____ _____    ______ ____
ROOT
ATOM      1  C2  UNL     1     153.184 159.424 170.141  0.00  0.00    +0.000 A 
ATOM      2  N1  UNL     1     154.056 158.886 169.285  0.00  0.00    +0.000 NA
ATOM      3  C3  UNL     1     155.337 158.737 169.623  0.00  0.00    +0.000 A 
ATOM      4  C4  UNL     1     155.797 159.135 170.884  0.00  0.00    +0.000 A 
ATOM      5  C5  UNL     1     157.125 159.013 171.228  0.00  0.00    +0.000 A 
ATOM      6  C6  UNL     1     157.998 158.488 170.321  0.00  0.00    +0.000 A 
ATOM      7  C7  UNL     1     157.553 158.085 169.057  0.00  0.00    +0.000 A 
ATOM      8  N2  UNL     1     158.152 157.568 167.971  0.00  0.00    +0.000 NA
ATOM      9  C8  UNL     1     157.257 157.373 166.990  0.00  0.00    +0.000 A 
ATOM     10  C9  UNL     1     156.070 157.781 167.497  0.00  0.00    +0.000 A 
ATOM     11  N3  UNL     1     156.239 158.233 168.775  0.00  0.00    +0.000 N 
ATOM     12  C12 UNL     1     154.883 159.679 171.755  0.00  0.00    +0.000 A 
ATOM     13  C13 UNL     1     153.554 159.838 171.401  0.00  0.00    +0.000 A 
ENDROOT
BRANCH   9  14
ATOM     14  C10 UNL     1     157.469 156.828 165.669  0.00  0.00    +0.000 A 
ATOM     15  N4  UNL     1     157.997 157.499 164.593  0.00  0.00    +0.000 NA
ATOM     16  N5  UNL     1     158.045 156.708 163.562  0.00  0.00    +0.000 NA
ATOM     17  C11 UNL     1     157.541 155.509 163.965  0.00  0.00    +0.000 A 
ATOM     18  O1  UNL     1     157.220 155.647 165.205  0.00  0.00    +0.000 OA
ENDBRANCH   9  14
BRANCH   1  20
ATOM     19  F1  UNL     1     151.184 158.352 169.579  0.00  0.00    +0.000 F 
ATOM     20  C1  UNL     1     151.757 159.607 169.739  0.00  0.00    +0.000 C 
ATOM     21  F2  UNL     1     151.151 160.269 170.816  0.00  0.00    +0.000 F 
ATOM     22  F3  UNL     1     151.723 160.333 168.562  0.00  0.00    +0.000 F 
ENDBRANCH   1  20
BRANCH  12  23
ATOM     23  C14 UNL     1     155.336 160.129 173.075  0.00  0.00    +0.000 C 
ATOM     24  F4  UNL     1     155.704 159.104 173.925  0.00  0.00    +0.000 F 
ATOM     25  F5  UNL     1     154.264 160.767 173.723  0.00  0.00    +0.000 F 
ATOM     26  F6  UNL     1     156.294 161.117 172.933  0.00  0.00    +0.000 F 
ENDBRANCH  12  23
TORSDOF 3
ENDMDL
MODEL 8
REMARK VINA RESULT:      -5.9      6.215     10.081
REMARK  Name = ./3D_structures\o74_MMV690555_3D.pdb
REMARK  3 active torsions:
REMARK  status: ('A' for Active; 'I' for Inactive)
REMARK    1  A    between atoms: C1_2  and  C2_5
REMARK    2  A    between atoms: C8_13  and  C10_16
REMARK    3  A    between atoms: C12_21  and  C14_23
REMARK                            x       y       z     vdW  Elec       q    Type
REMARK                         _______ _______ _______ _____ _____    ______ ____
ROOT
ATOM      1  C2  UNL     1     154.207 159.961 166.793  0.00  0.00    +0.000 A 
ATOM      2  N1  UNL     1     155.491 159.678 167.022  0.00  0.00    +0.000 NA
ATOM      3  C3  UNL     1     155.863 159.057 168.141  0.00  0.00    +0.000 A 
ATOM      4  C4  UNL     1     154.915 158.681 169.101  0.00  0.00    +0.000 A 
ATOM      5  C5  UNL     1     155.295 158.069 170.274  0.00  0.00    +0.000 A 
ATOM      6  C6  UNL     1     156.617 157.820 170.493  0.00  0.00    +0.000 A 
ATOM      7  C7  UNL     1     157.577 158.189 169.543  0.00  0.00    +0.000 A 
ATOM      8  N2  UNL     1     158.916 158.103 169.477  0.00  0.00    +0.000 NA
ATOM      9  C8  UNL     1     159.365 158.634 168.329  0.00  0.00    +0.000 A 
ATOM     10  C9  UNL     1     158.260 159.053 167.668  0.00  0.00    +0.000 A 
ATOM     11  N3  UNL     1     157.144 158.791 168.412  0.00  0.00    +0.000 N 
ATOM     12  C12 UNL     1     153.595 158.974 168.845  0.00  0.00    +0.000 A 
ATOM     13  C13 UNL     1     153.212 159.624 167.684  0.00  0.00    +0.000 A 
ENDROOT
BRANCH   9  14
ATOM     14  C10 UNL     1     160.724 158.736 167.851  0.00  0.00    +0.000 A 
ATOM     15  N4  UNL     1     161.375 159.896 167.511  0.00  0.00    +0.000 NA
ATOM     16  N5  UNL     1     162.585 159.623 167.121  0.00  0.00    +0.000 NA
ATOM     17  C11 UNL     1     162.728 158.272 167.205  0.00  0.00    +0.000 A 
ATOM     18  O1  UNL     1     161.604 157.813 167.634  0.00  0.00    +0.000 OA
ENDBRANCH   9  14
BRANCH   1  20
ATOM     19  F1  UNL     1     153.737 162.037 165.827  0.00  0.00    +0.000 F 
ATOM     20  C1  UNL     1     153.808 160.679 165.546  0.00  0.00    +0.000 C 
ATOM     21  F2  UNL     1     154.845 160.439 164.632  0.00  0.00    +0.000 F 
ATOM     22  F3  UNL     1     152.586 160.184 165.127  0.00  0.00    +0.000 F 
ENDBRANCH   1  20
BRANCH  12  23
ATOM     23  C14 UNL     1     152.580 158.617 169.841  0.00  0.00    +0.000 C 
ATOM     24  F4  UNL     1     152.431 157.257 170.032  0.00  0.00    +0.000 F 
ATOM     25  F5  UNL     1     151.327 159.056 169.379  0.00  0.00    +0.000 F 
ATOM     26  F6  UNL     1     152.791 159.332 171.006  0.00  0.00    +0.000 F 
ENDBRANCH  12  23
TORSDOF 3
ENDMDL
MODEL 9
REMARK VINA RESULT:      -5.9      4.031      7.575
REMARK  Name = ./3D_structures\o74_MMV690555_3D.pdb
REMARK  3 active torsions:
REMARK  status: ('A' for Active; 'I' for Inactive)
REMARK    1  A    between atoms: C1_2  and  C2_5
REMARK    2  A    between atoms: C8_13  and  C10_16
REMARK    3  A    between atoms: C12_21  and  C14_23
REMARK                            x       y       z     vdW  Elec       q    Type
REMARK                         _______ _______ _______ _____ _____    ______ ____
ROOT
ATOM      1  C2  UNL     1     151.324 163.668 166.038  0.00  0.00    +0.000 A 
ATOM      2  N1  UNL     1     151.982 162.537 166.301  0.00  0.00    +0.000 NA
ATOM      3  C3  UNL     1     151.670 161.801 167.368  0.00  0.00    +0.000 A 
ATOM      4  C4  UNL     1     150.642 162.193 168.235  0.00  0.00    +0.000 A 
ATOM      5  C5  UNL     1     150.337 161.455 169.355  0.00  0.00    +0.000 A 
ATOM      6  C6  UNL     1     151.047 160.320 169.615  0.00  0.00    +0.000 A 
ATOM      7  C7  UNL     1     152.077 159.914 168.758  0.00  0.00    +0.000 A 
ATOM      8  N2  UNL     1     152.946 158.890 168.752  0.00  0.00    +0.000 NA
ATOM      9  C8  UNL     1     153.761 158.972 167.689  0.00  0.00    +0.000 A 
ATOM     10  C9  UNL     1     153.372 160.082 167.020  0.00  0.00    +0.000 A 
ATOM     11  N3  UNL     1     152.334 160.682 167.675  0.00  0.00    +0.000 N 
ATOM     12  C12 UNL     1     149.970 163.357 167.943  0.00  0.00    +0.000 A 
ATOM     13  C13 UNL     1     150.299 164.123 166.837  0.00  0.00    +0.000 A 
ENDROOT
BRANCH   9  14
ATOM     14  C10 UNL     1     154.824 158.077 167.295  0.00  0.00    +0.000 A 
ATOM     15  N4  UNL     1     154.910 157.401 166.103  0.00  0.00    +0.000 NA
ATOM     16  N5  UNL     1     155.996 156.685 166.080  0.00  0.00    +0.000 NA
ATOM     17  C11 UNL     1     156.626 156.893 167.269  0.00  0.00    +0.000 A 
ATOM     18  O1  UNL     1     155.889 157.714 167.934  0.00  0.00    +0.000 OA
ENDBRANCH   9  14
BRANCH   1  20
ATOM     19  F1  UNL     1     152.973 165.009 165.064  0.00  0.00    +0.000 F 
ATOM     20  C1  UNL     1     151.700 164.495 164.852  0.00  0.00    +0.000 C 
ATOM     21  F2  UNL     1     151.725 163.603 163.771  0.00  0.00    +0.000 F 
ATOM     22  F3  UNL     1     150.764 165.504 164.707  0.00  0.00    +0.000 F 
ENDBRANCH   1  20
BRANCH  12  23
ATOM     23  C14 UNL     1     148.905 163.809 168.843  0.00  0.00    +0.000 C 
ATOM     24  F4  UNL     1     147.852 162.924 168.960  0.00  0.00    +0.000 F 
ATOM     25  F5  UNL     1     148.335 164.979 168.310  0.00  0.00    +0.000 F 
ATOM     26  F6  UNL     1     149.447 164.207 170.052  0.00  0.00    +0.000 F 
ENDBRANCH  12  23
TORSDOF 3
ENDMDL
