MODEL 1
REMARK VINA RESULT:      -5.1      0.000      0.000
REMARK  Name = ./3D_structures\o75_MMV1613559_3D.pdb
REMARK  16 active torsions:
REMARK  status: ('A' for Active; 'I' for Inactive)
REMARK    1  A    between atoms: C1_1  and  C2_2
REMARK    2  A    between atoms: C2_2  and  C3_3
REMARK    3  A    between atoms: C5_5  and  C6_6
REMARK    4  A    between atoms: N1_8  and  C7_9
REMARK    5  A    between atoms: C7_9  and  C16_22
REMARK    6  A    between atoms: C8_10  and  C9_11
REMARK    7  A    between atoms: C9_11  and  C10_12
REMARK    8  A    between atoms: C10_12  and  C11_13
REMARK    9  A    between atoms: C11_13  and  C12_14
REMARK   10  A    between atoms: C12_14  and  S1_15
REMARK   11  A    between atoms: S1_15  and  C13_16
REMARK   12  A    between atoms: C13_16  and  C14_17
REMARK   13  A    between atoms: C14_17  and  N2_18
REMARK   14  A    between atoms: C14_17  and  C15_19
REMARK   15  A    between atoms: C15_19  and  O2_20
REMARK   16  A    between atoms: C16_22  and  O4_23
REMARK                            x       y       z     vdW  Elec       q    Type
REMARK                         _______ _______ _______ _____ _____    ______ ____
ROOT
ATOM      1  C7  UNL     1     148.929 165.363 170.225  0.00  0.00    +0.000 C 
ATOM      2  C8  UNL     1     147.619 165.492 170.371  0.00  0.00    +0.000 C 
ENDROOT
BRANCH   1   5
ATOM      3  C6  UNL     1     149.809 165.227 167.967  0.00  0.00    +0.000 C 
ATOM      4  O1  UNL     1     149.754 166.504 168.005  0.00  0.00    +0.000 OA
ATOM      5  N1  UNL     1     149.378 164.556 169.139  0.00  0.00    +0.000 N 
ATOM      6  H10 UNL     1     149.394 163.520 169.186  0.00  0.00    +0.000 HD
BRANCH   3  11
ATOM      7  C1  UNL     1     152.783 165.465 166.741  0.00  0.00    +0.000 C 
ATOM      8  C2  UNL     1     151.618 164.763 166.141  0.00  0.00    +0.000 C 
ATOM      9  C3  UNL     1     151.675 164.677 164.603  0.00  0.00    +0.000 C 
ATOM     10  C4  UNL     1     151.290 163.447 166.846  0.00  0.00    +0.000 C 
ATOM     11  C5  UNL     1     150.300 164.610 166.739  0.00  0.00    +0.000 C 
ENDBRANCH   3  11
ENDBRANCH   1   5
BRANCH   1  12
ATOM     12  C16 UNL     1     149.872 166.012 171.128  0.00  0.00    +0.000 C 
ATOM     13  O5  UNL     1     150.306 165.369 172.098  0.00  0.00    +0.000 OA
BRANCH  12  14
ATOM     14  O4  UNL     1     150.264 167.300 170.902  0.00  0.00    +0.000 OA
ATOM     15  H26 UNL     1     149.977 168.028 171.551  0.00  0.00    +0.000 HD
ENDBRANCH  12  14
ENDBRANCH   1  12
BRANCH   2  16
ATOM     16  C9  UNL     1     146.719 164.820 169.437  0.00  0.00    +0.000 C 
BRANCH  16  17
ATOM     17  C10 UNL     1     146.097 163.560 169.995  0.00  0.00    +0.000 C 
BRANCH  17  18
ATOM     18  C11 UNL     1     145.442 162.806 168.860  0.00  0.00    +0.000 C 
BRANCH  18  19
ATOM     19  C12 UNL     1     144.825 163.697 167.831  0.00  0.00    +0.000 C 
BRANCH  19  20
ATOM     20  S1  UNL     1     145.676 163.407 166.235  0.00  0.00    +0.000 S 
BRANCH  20  21
ATOM     21  C13 UNL     1     145.538 164.922 165.279  0.00  0.00    +0.000 C 
BRANCH  21  22
ATOM     22  C14 UNL     1     145.988 166.146 166.036  0.00  0.00    +0.000 C 
BRANCH  22  23
ATOM     23  N2  UNL     1     147.348 166.425 165.689  0.00  0.00    +0.000 NA
ATOM     24  H23 UNL     1     147.524 166.404 164.659  0.00  0.00    +0.000 HD
ATOM     25  H24 UNL     1     147.952 165.696 166.163  0.00  0.00    +0.000 HD
ENDBRANCH  22  23
BRANCH  22  26
ATOM     26  C15 UNL     1     145.080 167.266 165.688  0.00  0.00    +0.000 C 
ATOM     27  O3  UNL     1     143.893 167.032 165.355  0.00  0.00    +0.000 OA
BRANCH  26  28
ATOM     28  O2  UNL     1     145.518 168.571 165.726  0.00  0.00    +0.000 OA
ATOM     29  H25 UNL     1     146.354 168.900 165.220  0.00  0.00    +0.000 HD
ENDBRANCH  26  28
ENDBRANCH  22  26
ENDBRANCH  21  22
ENDBRANCH  20  21
ENDBRANCH  19  20
ENDBRANCH  18  19
ENDBRANCH  17  18
ENDBRANCH  16  17
ENDBRANCH   2  16
TORSDOF 14
ENDMDL
MODEL 2
REMARK VINA RESULT:      -4.9      2.774      6.386
REMARK  Name = ./3D_structures\o75_MMV1613559_3D.pdb
REMARK  16 active torsions:
REMARK  status: ('A' for Active; 'I' for Inactive)
REMARK    1  A    between atoms: C1_1  and  C2_2
REMARK    2  A    between atoms: C2_2  and  C3_3
REMARK    3  A    between atoms: C5_5  and  C6_6
REMARK    4  A    between atoms: N1_8  and  C7_9
REMARK    5  A    between atoms: C7_9  and  C16_22
REMARK    6  A    between atoms: C8_10  and  C9_11
REMARK    7  A    between atoms: C9_11  and  C10_12
REMARK    8  A    between atoms: C10_12  and  C11_13
REMARK    9  A    between atoms: C11_13  and  C12_14
REMARK   10  A    between atoms: C12_14  and  S1_15
REMARK   11  A    between atoms: S1_15  and  C13_16
REMARK   12  A    between atoms: C13_16  and  C14_17
REMARK   13  A    between atoms: C14_17  and  N2_18
REMARK   14  A    between atoms: C14_17  and  C15_19
REMARK   15  A    between atoms: C15_19  and  O2_20
REMARK   16  A    between atoms: C16_22  and  O4_23
REMARK                            x       y       z     vdW  Elec       q    Type
REMARK                         _______ _______ _______ _____ _____    ______ ____
ROOT
ATOM      1  C7  UNL     1     145.148 165.355 166.735  0.00  0.00    +0.000 C 
ATOM      2  C8  UNL     1     145.929 165.356 167.806  0.00  0.00    +0.000 C 
ENDROOT
BRANCH   1   5
ATOM      3  C6  UNL     1     144.437 163.231 165.801  0.00  0.00    +0.000 C 
ATOM      4  O1  UNL     1     145.553 163.276 165.178  0.00  0.00    +0.000 OA
ATOM      5  N1  UNL     1     144.165 164.327 166.658  0.00  0.00    +0.000 N 
ATOM      6  H10 UNL     1     143.280 164.362 167.198  0.00  0.00    +0.000 HD
BRANCH   3  11
ATOM      7  C1  UNL     1     145.057 160.167 166.595  0.00  0.00    +0.000 C 
ATOM      8  C2  UNL     1     143.874 160.681 165.854  0.00  0.00    +0.000 C 
ATOM      9  C3  UNL     1     143.241 159.644 164.907  0.00  0.00    +0.000 C 
ATOM     10  C4  UNL     1     142.884 161.417 166.757  0.00  0.00    +0.000 C 
ATOM     11  C5  UNL     1     143.578 162.076 165.561  0.00  0.00    +0.000 C 
ENDBRANCH   3  11
ENDBRANCH   1   5
BRANCH   1  12
ATOM     12  C16 UNL     1     145.283 166.357 165.684  0.00  0.00    +0.000 C 
ATOM     13  O5  UNL     1     144.354 167.161 165.507  0.00  0.00    +0.000 OA
BRANCH  12  14
ATOM     14  O4  UNL     1     146.411 166.400 164.917  0.00  0.00    +0.000 OA
ATOM     15  H26 UNL     1     146.333 166.641 163.932  0.00  0.00    +0.000 HD
ENDBRANCH  12  14
ENDBRANCH   1  12
BRANCH   2  16
ATOM     16  C9  UNL     1     145.750 164.329 168.830  0.00  0.00    +0.000 C 
BRANCH  16  17
ATOM     17  C10 UNL     1     147.029 163.957 169.544  0.00  0.00    +0.000 C 
BRANCH  17  18
ATOM     18  C11 UNL     1     147.585 165.197 170.209  0.00  0.00    +0.000 C 
BRANCH  18  19
ATOM     19  C12 UNL     1     149.036 165.422 169.930  0.00  0.00    +0.000 C 
BRANCH  19  20
ATOM     20  S1  UNL     1     149.544 164.292 168.580  0.00  0.00    +0.000 S 
BRANCH  20  21
ATOM     21  C13 UNL     1     150.581 165.240 167.460  0.00  0.00    +0.000 C 
BRANCH  21  22
ATOM     22  C14 UNL     1     150.080 165.234 166.038  0.00  0.00    +0.000 C 
BRANCH  22  23
ATOM     23  N2  UNL     1     149.014 166.183 165.924  0.00  0.00    +0.000 NA
ATOM     24  H23 UNL     1     148.357 165.975 165.140  0.00  0.00    +0.000 HD
ATOM     25  H24 UNL     1     149.452 167.135 165.771  0.00  0.00    +0.000 HD
ENDBRANCH  22  23
BRANCH  22  26
ATOM     26  C15 UNL     1     151.217 165.561 165.145  0.00  0.00    +0.000 C 
ATOM     27  O3  UNL     1     151.549 164.764 164.234  0.00  0.00    +0.000 OA
BRANCH  26  28
ATOM     28  O2  UNL     1     151.923 166.733 165.295  0.00  0.00    +0.000 OA
ATOM     29  H25 UNL     1     152.948 166.792 165.194  0.00  0.00    +0.000 HD
ENDBRANCH  26  28
ENDBRANCH  22  26
ENDBRANCH  21  22
ENDBRANCH  20  21
ENDBRANCH  19  20
ENDBRANCH  18  19
ENDBRANCH  17  18
ENDBRANCH  16  17
ENDBRANCH   2  16
TORSDOF 14
ENDMDL
MODEL 3
REMARK VINA RESULT:      -4.8     10.440     13.367
REMARK  Name = ./3D_structures\o75_MMV1613559_3D.pdb
REMARK  16 active torsions:
REMARK  status: ('A' for Active; 'I' for Inactive)
REMARK    1  A    between atoms: C1_1  and  C2_2
REMARK    2  A    between atoms: C2_2  and  C3_3
REMARK    3  A    between atoms: C5_5  and  C6_6
REMARK    4  A    between atoms: N1_8  and  C7_9
REMARK    5  A    between atoms: C7_9  and  C16_22
REMARK    6  A    between atoms: C8_10  and  C9_11
REMARK    7  A    between atoms: C9_11  and  C10_12
REMARK    8  A    between atoms: C10_12  and  C11_13
REMARK    9  A    between atoms: C11_13  and  C12_14
REMARK   10  A    between atoms: C12_14  and  S1_15
REMARK   11  A    between atoms: S1_15  and  C13_16
REMARK   12  A    between atoms: C13_16  and  C14_17
REMARK   13  A    between atoms: C14_17  and  N2_18
REMARK   14  A    between atoms: C14_17  and  C15_19
REMARK   15  A    between atoms: C15_19  and  O2_20
REMARK   16  A    between atoms: C16_22  and  O4_23
REMARK                            x       y       z     vdW  Elec       q    Type
REMARK                         _______ _______ _______ _____ _____    ______ ____
ROOT
ATOM      1  C7  UNL     1     156.481 158.036 169.229  0.00  0.00    +0.000 C 
ATOM      2  C8  UNL     1     157.661 157.665 168.755  0.00  0.00    +0.000 C 
ENDROOT
BRANCH   1   5
ATOM      3  C6  UNL     1     156.497 158.777 171.540  0.00  0.00    +0.000 C 
ATOM      4  O1  UNL     1     156.525 157.527 171.808  0.00  0.00    +0.000 OA
ATOM      5  N1  UNL     1     156.474 159.112 170.163  0.00  0.00    +0.000 N 
ATOM      6  H10 UNL     1     156.451 160.106 169.866  0.00  0.00    +0.000 HD
BRANCH   3  11
ATOM      7  C1  UNL     1     154.849 161.542 171.749  0.00  0.00    +0.000 C 
ATOM      8  C2  UNL     1     155.803 160.988 172.746  0.00  0.00    +0.000 C 
ATOM      9  C3  UNL     1     156.485 162.065 173.612  0.00  0.00    +0.000 C 
ATOM     10  C4  UNL     1     155.225 159.806 173.526  0.00  0.00    +0.000 C 
ATOM     11  C5  UNL     1     156.488 159.706 172.665  0.00  0.00    +0.000 C 
ENDBRANCH   3  11
ENDBRANCH   1   5
BRANCH   1  12
ATOM     12  C16 UNL     1     155.245 157.380 168.819  0.00  0.00    +0.000 C 
ATOM     13  O5  UNL     1     155.095 157.091 167.620  0.00  0.00    +0.000 OA
BRANCH  12  14
ATOM     14  O4  UNL     1     154.281 157.094 169.741  0.00  0.00    +0.000 OA
ATOM     15  H26 UNL     1     154.537 156.598 170.590  0.00  0.00    +0.000 HD
ENDBRANCH  12  14
ENDBRANCH   1  12
BRANCH   2  16
ATOM     16  C9  UNL     1     158.867 158.358 169.199  0.00  0.00    +0.000 C 
BRANCH  16  17
ATOM     17  C10 UNL     1     159.831 158.675 168.079  0.00  0.00    +0.000 C 
BRANCH  17  18
ATOM     18  C11 UNL     1     159.334 158.010 166.815  0.00  0.00    +0.000 C 
BRANCH  18  19
ATOM     19  C12 UNL     1     160.307 158.081 165.683  0.00  0.00    +0.000 C 
BRANCH  19  20
ATOM     20  S1  UNL     1     160.175 156.532 164.713  0.00  0.00    +0.000 S 
BRANCH  20  21
ATOM     21  C13 UNL     1     158.466 156.388 164.178  0.00  0.00    +0.000 C 
BRANCH  21  22
ATOM     22  C14 UNL     1     157.702 155.313 164.910  0.00  0.00    +0.000 C 
BRANCH  22  23
ATOM     23  N2  UNL     1     156.372 155.781 165.153  0.00  0.00    +0.000 NA
ATOM     24  H23 UNL     1     156.264 156.262 166.074  0.00  0.00    +0.000 HD
ATOM     25  H24 UNL     1     155.729 154.941 165.119  0.00  0.00    +0.000 HD
ENDBRANCH  22  23
BRANCH  22  26
ATOM     26  C15 UNL     1     157.721 154.085 164.079  0.00  0.00    +0.000 C 
ATOM     27  O3  UNL     1     158.387 153.088 164.447  0.00  0.00    +0.000 OA
BRANCH  26  28
ATOM     28  O2  UNL     1     157.012 154.016 162.900  0.00  0.00    +0.000 OA
ATOM     29  H25 UNL     1     157.261 153.377 162.129  0.00  0.00    +0.000 HD
ENDBRANCH  26  28
ENDBRANCH  22  26
ENDBRANCH  21  22
ENDBRANCH  20  21
ENDBRANCH  19  20
ENDBRANCH  18  19
ENDBRANCH  17  18
ENDBRANCH  16  17
ENDBRANCH   2  16
TORSDOF 14
ENDMDL
MODEL 4
REMARK VINA RESULT:      -4.8      9.722     12.625
REMARK  Name = ./3D_structures\o75_MMV1613559_3D.pdb
REMARK  16 active torsions:
REMARK  status: ('A' for Active; 'I' for Inactive)
REMARK    1  A    between atoms: C1_1  and  C2_2
REMARK    2  A    between atoms: C2_2  and  C3_3
REMARK    3  A    between atoms: C5_5  and  C6_6
REMARK    4  A    between atoms: N1_8  and  C7_9
REMARK    5  A    between atoms: C7_9  and  C16_22
REMARK    6  A    between atoms: C8_10  and  C9_11
REMARK    7  A    between atoms: C9_11  and  C10_12
REMARK    8  A    between atoms: C10_12  and  C11_13
REMARK    9  A    between atoms: C11_13  and  C12_14
REMARK   10  A    between atoms: C12_14  and  S1_15
REMARK   11  A    between atoms: S1_15  and  C13_16
REMARK   12  A    between atoms: C13_16  and  C14_17
REMARK   13  A    between atoms: C14_17  and  N2_18
REMARK   14  A    between atoms: C14_17  and  C15_19
REMARK   15  A    between atoms: C15_19  and  O2_20
REMARK   16  A    between atoms: C16_22  and  O4_23
REMARK                            x       y       z     vdW  Elec       q    Type
REMARK                         _______ _______ _______ _____ _____    ______ ____
ROOT
ATOM      1  C7  UNL     1     157.162 158.448 169.918  0.00  0.00    +0.000 C 
ATOM      2  C8  UNL     1     158.478 158.351 169.790  0.00  0.00    +0.000 C 
ENDROOT
BRANCH   1   5
ATOM      3  C6  UNL     1     155.870 158.956 167.927  0.00  0.00    +0.000 C 
ATOM      4  O1  UNL     1     155.944 157.697 167.712  0.00  0.00    +0.000 OA
ATOM      5  N1  UNL     1     156.509 159.419 169.105  0.00  0.00    +0.000 N 
ATOM      6  H10 UNL     1     156.492 160.428 169.348  0.00  0.00    +0.000 HD
BRANCH   3  11
ATOM      7  C1  UNL     1     152.805 159.942 168.118  0.00  0.00    +0.000 C 
ATOM      8  C2  UNL     1     153.750 160.160 166.990  0.00  0.00    +0.000 C 
ATOM      9  C3  UNL     1     153.054 160.325 165.626  0.00  0.00    +0.000 C 
ATOM     10  C4  UNL     1     154.812 161.216 167.302  0.00  0.00    +0.000 C 
ATOM     11  C5  UNL     1     155.150 159.765 166.948  0.00  0.00    +0.000 C 
ENDBRANCH   3  11
ENDBRANCH   1   5
BRANCH   1  12
ATOM     12  C16 UNL     1     156.414 157.605 170.842  0.00  0.00    +0.000 C 
ATOM     13  O5  UNL     1     156.551 157.793 172.062  0.00  0.00    +0.000 OA
BRANCH  12  14
ATOM     14  O4  UNL     1     155.583 156.633 170.366  0.00  0.00    +0.000 OA
ATOM     15  H26 UNL     1     154.676 156.495 170.804  0.00  0.00    +0.000 HD
ENDBRANCH  12  14
ENDBRANCH   1  12
BRANCH   2  16
ATOM     16  C9  UNL     1     159.177 159.220 168.848  0.00  0.00    +0.000 C 
BRANCH  16  17
ATOM     17  C10 UNL     1     160.104 158.478 167.912  0.00  0.00    +0.000 C 
BRANCH  17  18
ATOM     18  C11 UNL     1     159.283 157.899 166.783  0.00  0.00    +0.000 C 
BRANCH  18  19
ATOM     19  C12 UNL     1     158.927 158.900 165.731  0.00  0.00    +0.000 C 
BRANCH  19  20
ATOM     20  S1  UNL     1     157.737 158.122 164.576  0.00  0.00    +0.000 S 
BRANCH  20  21
ATOM     21  C13 UNL     1     158.391 156.502 164.156  0.00  0.00    +0.000 C 
BRANCH  21  22
ATOM     22  C14 UNL     1     157.634 155.370 164.803  0.00  0.00    +0.000 C 
BRANCH  22  23
ATOM     23  N2  UNL     1     156.368 155.864 165.254  0.00  0.00    +0.000 NA
ATOM     24  H23 UNL     1     156.452 156.617 165.973  0.00  0.00    +0.000 HD
ATOM     25  H24 UNL     1     155.837 155.046 165.664  0.00  0.00    +0.000 HD
ENDBRANCH  22  23
BRANCH  22  26
ATOM     26  C15 UNL     1     157.486 154.282 163.806  0.00  0.00    +0.000 C 
ATOM     27  O3  UNL     1     157.778 153.102 164.117  0.00  0.00    +0.000 OA
BRANCH  26  28
ATOM     28  O2  UNL     1     157.030 154.543 162.534  0.00  0.00    +0.000 OA
ATOM     29  H25 UNL     1     157.614 154.431 161.691  0.00  0.00    +0.000 HD
ENDBRANCH  26  28
ENDBRANCH  22  26
ENDBRANCH  21  22
ENDBRANCH  20  21
ENDBRANCH  19  20
ENDBRANCH  18  19
ENDBRANCH  17  18
ENDBRANCH  16  17
ENDBRANCH   2  16
TORSDOF 14
ENDMDL
MODEL 5
REMARK VINA RESULT:      -4.7      1.819      2.165
REMARK  Name = ./3D_structures\o75_MMV1613559_3D.pdb
REMARK  16 active torsions:
REMARK  status: ('A' for Active; 'I' for Inactive)
REMARK    1  A    between atoms: C1_1  and  C2_2
REMARK    2  A    between atoms: C2_2  and  C3_3
REMARK    3  A    between atoms: C5_5  and  C6_6
REMARK    4  A    between atoms: N1_8  and  C7_9
REMARK    5  A    between atoms: C7_9  and  C16_22
REMARK    6  A    between atoms: C8_10  and  C9_11
REMARK    7  A    between atoms: C9_11  and  C10_12
REMARK    8  A    between atoms: C10_12  and  C11_13
REMARK    9  A    between atoms: C11_13  and  C12_14
REMARK   10  A    between atoms: C12_14  and  S1_15
REMARK   11  A    between atoms: S1_15  and  C13_16
REMARK   12  A    between atoms: C13_16  and  C14_17
REMARK   13  A    between atoms: C14_17  and  N2_18
REMARK   14  A    between atoms: C14_17  and  C15_19
REMARK   15  A    between atoms: C15_19  and  O2_20
REMARK   16  A    between atoms: C16_22  and  O4_23
REMARK                            x       y       z     vdW  Elec       q    Type
REMARK                         _______ _______ _______ _____ _____    ______ ____
ROOT
ATOM      1  C7  UNL     1     149.153 164.268 169.450  0.00  0.00    +0.000 C 
ATOM      2  C8  UNL     1     148.396 163.207 169.211  0.00  0.00    +0.000 C 
ENDROOT
BRANCH   1   5
ATOM      3  C6  UNL     1     150.136 165.465 167.581  0.00  0.00    +0.000 C 
ATOM      4  O1  UNL     1     149.019 166.089 167.558  0.00  0.00    +0.000 OA
ATOM      5  N1  UNL     1     150.266 164.471 168.583  0.00  0.00    +0.000 N 
ATOM      6  H10 UNL     1     151.142 163.922 168.666  0.00  0.00    +0.000 HD
BRANCH   3  11
ATOM      7  C1  UNL     1     151.867 163.461 165.739  0.00  0.00    +0.000 C 
ATOM      8  C2  UNL     1     151.971 164.943 165.796  0.00  0.00    +0.000 C 
ATOM      9  C3  UNL     1     153.366 165.479 165.420  0.00  0.00    +0.000 C 
ATOM     10  C4  UNL     1     150.804 165.647 165.103  0.00  0.00    +0.000 C 
ATOM     11  C5  UNL     1     151.136 165.837 166.586  0.00  0.00    +0.000 C 
ENDBRANCH   3  11
ENDBRANCH   1   5
BRANCH   1  12
ATOM     12  C16 UNL     1     148.865 165.188 170.544  0.00  0.00    +0.000 C 
ATOM     13  O5  UNL     1     147.720 165.658 170.640  0.00  0.00    +0.000 OA
BRANCH  12  14
ATOM     14  O4  UNL     1     149.842 165.518 171.438  0.00  0.00    +0.000 OA
ATOM     15  H26 UNL     1     149.590 166.014 172.289  0.00  0.00    +0.000 HD
ENDBRANCH  12  14
ENDBRANCH   1  12
BRANCH   2  16
ATOM     16  C9  UNL     1     148.729 162.318 168.101  0.00  0.00    +0.000 C 
BRANCH  16  17
ATOM     17  C10 UNL     1     147.607 161.381 167.717  0.00  0.00    +0.000 C 
BRANCH  17  18
ATOM     18  C11 UNL     1     146.476 162.200 167.136  0.00  0.00    +0.000 C 
BRANCH  18  19
ATOM     19  C12 UNL     1     145.182 162.028 167.864  0.00  0.00    +0.000 C 
BRANCH  19  20
ATOM     20  S1  UNL     1     144.259 163.609 167.778  0.00  0.00    +0.000 S 
BRANCH  20  21
ATOM     21  C13 UNL     1     145.423 164.871 167.246  0.00  0.00    +0.000 C 
BRANCH  21  22
ATOM     22  C14 UNL     1     145.083 165.465 165.903  0.00  0.00    +0.000 C 
BRANCH  22  23
ATOM     23  N2  UNL     1     143.674 165.715 165.856  0.00  0.00    +0.000 NA
ATOM     24  H23 UNL     1     143.436 166.728 165.766  0.00  0.00    +0.000 HD
ATOM     25  H24 UNL     1     143.255 165.335 166.752  0.00  0.00    +0.000 HD
ENDBRANCH  22  23
BRANCH  22  26
ATOM     26  C15 UNL     1     145.877 166.705 165.730  0.00  0.00    +0.000 C 
ATOM     27  O3  UNL     1     145.349 167.823 165.940  0.00  0.00    +0.000 OA
BRANCH  26  28
ATOM     28  O2  UNL     1     147.197 166.653 165.341  0.00  0.00    +0.000 OA
ATOM     29  H25 UNL     1     147.498 166.327 164.410  0.00  0.00    +0.000 HD
ENDBRANCH  26  28
ENDBRANCH  22  26
ENDBRANCH  21  22
ENDBRANCH  20  21
ENDBRANCH  19  20
ENDBRANCH  18  19
ENDBRANCH  17  18
ENDBRANCH  16  17
ENDBRANCH   2  16
TORSDOF 14
ENDMDL
MODEL 6
REMARK VINA RESULT:      -4.7     11.600     14.296
REMARK  Name = ./3D_structures\o75_MMV1613559_3D.pdb
REMARK  16 active torsions:
REMARK  status: ('A' for Active; 'I' for Inactive)
REMARK    1  A    between atoms: C1_1  and  C2_2
REMARK    2  A    between atoms: C2_2  and  C3_3
REMARK    3  A    between atoms: C5_5  and  C6_6
REMARK    4  A    between atoms: N1_8  and  C7_9
REMARK    5  A    between atoms: C7_9  and  C16_22
REMARK    6  A    between atoms: C8_10  and  C9_11
REMARK    7  A    between atoms: C9_11  and  C10_12
REMARK    8  A    between atoms: C10_12  and  C11_13
REMARK    9  A    between atoms: C11_13  and  C12_14
REMARK   10  A    between atoms: C12_14  and  S1_15
REMARK   11  A    between atoms: S1_15  and  C13_16
REMARK   12  A    between atoms: C13_16  and  C14_17
REMARK   13  A    between atoms: C14_17  and  N2_18
REMARK   14  A    between atoms: C14_17  and  C15_19
REMARK   15  A    between atoms: C15_19  and  O2_20
REMARK   16  A    between atoms: C16_22  and  O4_23
REMARK                            x       y       z     vdW  Elec       q    Type
REMARK                         _______ _______ _______ _____ _____    ______ ____
ROOT
ATOM      1  C7  UNL     1     158.353 158.897 168.499  0.00  0.00    +0.000 C 
ATOM      2  C8  UNL     1     158.319 157.824 167.723  0.00  0.00    +0.000 C 
ENDROOT
BRANCH   1   5
ATOM      3  C6  UNL     1     157.265 158.798 170.667  0.00  0.00    +0.000 C 
ATOM      4  O1  UNL     1     158.371 158.284 171.055  0.00  0.00    +0.000 OA
ATOM      5  N1  UNL     1     157.198 159.151 169.296  0.00  0.00    +0.000 N 
ATOM      6  H10 UNL     1     156.335 159.573 168.905  0.00  0.00    +0.000 HD
BRANCH   3  11
ATOM      7  C1  UNL     1     156.741 161.383 172.524  0.00  0.00    +0.000 C 
ATOM      8  C2  UNL     1     156.003 160.091 172.553  0.00  0.00    +0.000 C 
ATOM      9  C3  UNL     1     155.382 159.767 173.925  0.00  0.00    +0.000 C 
ATOM     10  C4  UNL     1     155.058 159.922 171.362  0.00  0.00    +0.000 C 
ATOM     11  C5  UNL     1     156.211 158.958 171.663  0.00  0.00    +0.000 C 
ENDBRANCH   3  11
ENDBRANCH   1   5
BRANCH   1  12
ATOM     12  C16 UNL     1     159.512 159.781 168.541  0.00  0.00    +0.000 C 
ATOM     13  O5  UNL     1     160.470 159.540 167.789  0.00  0.00    +0.000 OA
BRANCH  12  14
ATOM     14  O4  UNL     1     159.532 160.847 169.393  0.00  0.00    +0.000 OA
ATOM     15  H26 UNL     1     160.198 161.598 169.232  0.00  0.00    +0.000 HD
ENDBRANCH  12  14
ENDBRANCH   1  12
BRANCH   2  16
ATOM     16  C9  UNL     1     157.132 156.973 167.721  0.00  0.00    +0.000 C 
BRANCH  16  17
ATOM     17  C10 UNL     1     156.654 156.603 166.335  0.00  0.00    +0.000 C 
BRANCH  17  18
ATOM     18  C11 UNL     1     157.834 156.086 165.543  0.00  0.00    +0.000 C 
BRANCH  18  19
ATOM     19  C12 UNL     1     157.477 154.991 164.591  0.00  0.00    +0.000 C 
BRANCH  19  20
ATOM     20  S1  UNL     1     158.896 153.836 164.485  0.00  0.00    +0.000 S 
BRANCH  20  21
ATOM     21  C13 UNL     1     158.446 152.552 163.311  0.00  0.00    +0.000 C 
BRANCH  21  22
ATOM     22  C14 UNL     1     158.346 151.184 163.936  0.00  0.00    +0.000 C 
BRANCH  22  23
ATOM     23  N2  UNL     1     159.090 151.184 165.159  0.00  0.00    +0.000 NA
ATOM     24  H23 UNL     1     159.974 150.630 165.105  0.00  0.00    +0.000 HD
ATOM     25  H24 UNL     1     158.466 150.775 165.910  0.00  0.00    +0.000 HD
ENDBRANCH  22  23
BRANCH  22  26
ATOM     26  C15 UNL     1     156.911 150.877 164.154  0.00  0.00    +0.000 C 
ATOM     27  O3  UNL     1     156.575 149.791 164.683  0.00  0.00    +0.000 OA
BRANCH  26  28
ATOM     28  O2  UNL     1     155.932 151.771 163.784  0.00  0.00    +0.000 OA
ATOM     29  H25 UNL     1     154.945 151.676 164.069  0.00  0.00    +0.000 HD
ENDBRANCH  26  28
ENDBRANCH  22  26
ENDBRANCH  21  22
ENDBRANCH  20  21
ENDBRANCH  19  20
ENDBRANCH  18  19
ENDBRANCH  17  18
ENDBRANCH  16  17
ENDBRANCH   2  16
TORSDOF 14
ENDMDL
MODEL 7
REMARK VINA RESULT:      -4.7      4.339      6.261
REMARK  Name = ./3D_structures\o75_MMV1613559_3D.pdb
REMARK  16 active torsions:
REMARK  status: ('A' for Active; 'I' for Inactive)
REMARK    1  A    between atoms: C1_1  and  C2_2
REMARK    2  A    between atoms: C2_2  and  C3_3
REMARK    3  A    between atoms: C5_5  and  C6_6
REMARK    4  A    between atoms: N1_8  and  C7_9
REMARK    5  A    between atoms: C7_9  and  C16_22
REMARK    6  A    between atoms: C8_10  and  C9_11
REMARK    7  A    between atoms: C9_11  and  C10_12
REMARK    8  A    between atoms: C10_12  and  C11_13
REMARK    9  A    between atoms: C11_13  and  C12_14
REMARK   10  A    between atoms: C12_14  and  S1_15
REMARK   11  A    between atoms: S1_15  and  C13_16
REMARK   12  A    between atoms: C13_16  and  C14_17
REMARK   13  A    between atoms: C14_17  and  N2_18
REMARK   14  A    between atoms: C14_17  and  C15_19
REMARK   15  A    between atoms: C15_19  and  O2_20
REMARK   16  A    between atoms: C16_22  and  O4_23
REMARK                            x       y       z     vdW  Elec       q    Type
REMARK                         _______ _______ _______ _____ _____    ______ ____
ROOT
ATOM      1  C7  UNL     1     145.211 165.734 166.396  0.00  0.00    +0.000 C 
ATOM      2  C8  UNL     1     144.408 164.742 166.042  0.00  0.00    +0.000 C 
ENDROOT
BRANCH   1   5
ATOM      3  C6  UNL     1     147.400 165.093 167.228  0.00  0.00    +0.000 C 
ATOM      4  O1  UNL     1     147.697 164.982 165.989  0.00  0.00    +0.000 OA
ATOM      5  N1  UNL     1     146.071 165.498 167.509  0.00  0.00    +0.000 N 
ATOM      6  H10 UNL     1     145.754 165.611 168.490  0.00  0.00    +0.000 HD
BRANCH   3  11
ATOM      7  C1  UNL     1     146.980 164.068 170.258  0.00  0.00    +0.000 C 
ATOM      8  C2  UNL     1     148.269 164.393 169.590  0.00  0.00    +0.000 C 
ATOM      9  C3  UNL     1     149.373 164.842 170.566  0.00  0.00    +0.000 C 
ATOM     10  C4  UNL     1     148.697 163.329 168.579  0.00  0.00    +0.000 C 
ATOM     11  C5  UNL     1     148.445 164.792 168.201  0.00  0.00    +0.000 C 
ENDBRANCH   3  11
ENDBRANCH   1   5
BRANCH   1  12
ATOM     12  C16 UNL     1     145.222 167.008 165.686  0.00  0.00    +0.000 C 
ATOM     13  O5  UNL     1     144.153 167.440 165.227  0.00  0.00    +0.000 OA
BRANCH  12  14
ATOM     14  O4  UNL     1     146.388 167.701 165.537  0.00  0.00    +0.000 OA
ATOM     15  H26 UNL     1     146.953 167.905 166.357  0.00  0.00    +0.000 HD
ENDBRANCH  12  14
ENDBRANCH   1  12
BRANCH   2  16
ATOM     16  C9  UNL     1     144.439 163.487 166.788  0.00  0.00    +0.000 C 
BRANCH  16  17
ATOM     17  C10 UNL     1     145.097 162.352 166.037  0.00  0.00    +0.000 C 
BRANCH  17  18
ATOM     18  C11 UNL     1     144.992 161.097 166.874  0.00  0.00    +0.000 C 
BRANCH  18  19
ATOM     19  C12 UNL     1     143.582 160.689 167.160  0.00  0.00    +0.000 C 
BRANCH  19  20
ATOM     20  S1  UNL     1     143.387 158.929 166.692  0.00  0.00    +0.000 S 
BRANCH  20  21
ATOM     21  C13 UNL     1     143.553 158.836 164.905  0.00  0.00    +0.000 C 
BRANCH  21  22
ATOM     22  C14 UNL     1     144.629 157.879 164.457  0.00  0.00    +0.000 C 
BRANCH  22  23
ATOM     23  N2  UNL     1     144.161 157.172 163.304  0.00  0.00    +0.000 NA
ATOM     24  H23 UNL     1     144.745 156.339 163.065  0.00  0.00    +0.000 HD
ATOM     25  H24 UNL     1     144.169 157.850 162.491  0.00  0.00    +0.000 HD
ENDBRANCH  22  23
BRANCH  22  26
ATOM     26  C15 UNL     1     145.856 158.662 164.175  0.00  0.00    +0.000 C 
ATOM     27  O3  UNL     1     146.834 158.602 164.958  0.00  0.00    +0.000 OA
BRANCH  26  28
ATOM     28  O2  UNL     1     145.946 159.460 163.056  0.00  0.00    +0.000 OA
ATOM     29  H25 UNL     1     145.704 159.133 162.108  0.00  0.00    +0.000 HD
ENDBRANCH  26  28
ENDBRANCH  22  26
ENDBRANCH  21  22
ENDBRANCH  20  21
ENDBRANCH  19  20
ENDBRANCH  18  19
ENDBRANCH  17  18
ENDBRANCH  16  17
ENDBRANCH   2  16
TORSDOF 14
ENDMDL
MODEL 8
REMARK VINA RESULT:      -4.6      2.310      3.240
REMARK  Name = ./3D_structures\o75_MMV1613559_3D.pdb
REMARK  16 active torsions:
REMARK  status: ('A' for Active; 'I' for Inactive)
REMARK    1  A    between atoms: C1_1  and  C2_2
REMARK    2  A    between atoms: C2_2  and  C3_3
REMARK    3  A    between atoms: C5_5  and  C6_6
REMARK    4  A    between atoms: N1_8  and  C7_9
REMARK    5  A    between atoms: C7_9  and  C16_22
REMARK    6  A    between atoms: C8_10  and  C9_11
REMARK    7  A    between atoms: C9_11  and  C10_12
REMARK    8  A    between atoms: C10_12  and  C11_13
REMARK    9  A    between atoms: C11_13  and  C12_14
REMARK   10  A    between atoms: C12_14  and  S1_15
REMARK   11  A    between atoms: S1_15  and  C13_16
REMARK   12  A    between atoms: C13_16  and  C14_17
REMARK   13  A    between atoms: C14_17  and  N2_18
REMARK   14  A    between atoms: C14_17  and  C15_19
REMARK   15  A    between atoms: C15_19  and  O2_20
REMARK   16  A    between atoms: C16_22  and  O4_23
REMARK                            x       y       z     vdW  Elec       q    Type
REMARK                         _______ _______ _______ _____ _____    ______ ____
ROOT
ATOM      1  C7  UNL     1     146.959 163.311 168.739  0.00  0.00    +0.000 C 
ATOM      2  C8  UNL     1     146.102 162.301 168.690  0.00  0.00    +0.000 C 
ENDROOT
BRANCH   1   5
ATOM      3  C6  UNL     1     149.306 162.755 168.466  0.00  0.00    +0.000 C 
ATOM      4  O1  UNL     1     149.245 162.445 169.706  0.00  0.00    +0.000 OA
ATOM      5  N1  UNL     1     148.100 163.227 167.889  0.00  0.00    +0.000 N 
ATOM      6  H10 UNL     1     148.069 163.498 166.888  0.00  0.00    +0.000 HD
BRANCH   3  11
ATOM      7  C1  UNL     1     151.320 160.249 168.729  0.00  0.00    +0.000 C 
ATOM      8  C2  UNL     1     151.538 161.500 167.954  0.00  0.00    +0.000 C 
ATOM      9  C3  UNL     1     153.025 161.865 167.778  0.00  0.00    +0.000 C 
ATOM     10  C4  UNL     1     150.707 161.557 166.672  0.00  0.00    +0.000 C 
ATOM     11  C5  UNL     1     150.590 162.593 167.794  0.00  0.00    +0.000 C 
ENDBRANCH   3  11
ENDBRANCH   1   5
BRANCH   1  12
ATOM     12  C16 UNL     1     146.749 164.457 169.616  0.00  0.00    +0.000 C 
ATOM     13  O5  UNL     1     145.694 165.104 169.507  0.00  0.00    +0.000 OA
BRANCH  12  14
ATOM     14  O4  UNL     1     147.698 164.802 170.534  0.00  0.00    +0.000 OA
ATOM     15  H26 UNL     1     147.974 165.776 170.621  0.00  0.00    +0.000 HD
ENDBRANCH  12  14
ENDBRANCH   1  12
BRANCH   2  16
ATOM     16  C9  UNL     1     146.361 161.179 167.792  0.00  0.00    +0.000 C 
BRANCH  16  17
ATOM     17  C10 UNL     1     145.111 160.443 167.365  0.00  0.00    +0.000 C 
BRANCH  17  18
ATOM     18  C11 UNL     1     144.004 161.454 167.169  0.00  0.00    +0.000 C 
BRANCH  18  19
ATOM     19  C12 UNL     1     144.012 162.091 165.817  0.00  0.00    +0.000 C 
BRANCH  19  20
ATOM     20  S1  UNL     1     143.917 163.907 166.036  0.00  0.00    +0.000 S 
BRANCH  20  21
ATOM     21  C13 UNL     1     145.362 164.612 165.236  0.00  0.00    +0.000 C 
BRANCH  21  22
ATOM     22  C14 UNL     1     146.065 165.645 166.080  0.00  0.00    +0.000 C 
BRANCH  22  23
ATOM     23  N2  UNL     1     147.476 165.522 165.873  0.00  0.00    +0.000 NA
ATOM     24  H23 UNL     1     147.906 164.738 166.411  0.00  0.00    +0.000 HD
ATOM     25  H24 UNL     1     147.921 166.436 166.170  0.00  0.00    +0.000 HD
ENDBRANCH  22  23
BRANCH  22  26
ATOM     26  C15 UNL     1     145.557 166.984 165.693  0.00  0.00    +0.000 C 
ATOM     27  O3  UNL     1     146.348 167.953 165.600  0.00  0.00    +0.000 OA
BRANCH  26  28
ATOM     28  O2  UNL     1     144.220 167.186 165.431  0.00  0.00    +0.000 OA
ATOM     29  H25 UNL     1     143.880 167.831 164.702  0.00  0.00    +0.000 HD
ENDBRANCH  26  28
ENDBRANCH  22  26
ENDBRANCH  21  22
ENDBRANCH  20  21
ENDBRANCH  19  20
ENDBRANCH  18  19
ENDBRANCH  17  18
ENDBRANCH  16  17
ENDBRANCH   2  16
TORSDOF 14
ENDMDL
MODEL 9
REMARK VINA RESULT:      -4.6      7.916     10.069
REMARK  Name = ./3D_structures\o75_MMV1613559_3D.pdb
REMARK  16 active torsions:
REMARK  status: ('A' for Active; 'I' for Inactive)
REMARK    1  A    between atoms: C1_1  and  C2_2
REMARK    2  A    between atoms: C2_2  and  C3_3
REMARK    3  A    between atoms: C5_5  and  C6_6
REMARK    4  A    between atoms: N1_8  and  C7_9
REMARK    5  A    between atoms: C7_9  and  C16_22
REMARK    6  A    between atoms: C8_10  and  C9_11
REMARK    7  A    between atoms: C9_11  and  C10_12
REMARK    8  A    between atoms: C10_12  and  C11_13
REMARK    9  A    between atoms: C11_13  and  C12_14
REMARK   10  A    between atoms: C12_14  and  S1_15
REMARK   11  A    between atoms: S1_15  and  C13_16
REMARK   12  A    between atoms: C13_16  and  C14_17
REMARK   13  A    between atoms: C14_17  and  N2_18
REMARK   14  A    between atoms: C14_17  and  C15_19
REMARK   15  A    between atoms: C15_19  and  O2_20
REMARK   16  A    between atoms: C16_22  and  O4_23
REMARK                            x       y       z     vdW  Elec       q    Type
REMARK                         _______ _______ _______ _____ _____    ______ ____
ROOT
ATOM      1  C7  UNL     1     156.359 157.666 169.756  0.00  0.00    +0.000 C 
ATOM      2  C8  UNL     1     155.061 157.895 169.628  0.00  0.00    +0.000 C 
ENDROOT
BRANCH   1   5
ATOM      3  C6  UNL     1     157.740 157.983 167.785  0.00  0.00    +0.000 C 
ATOM      4  O1  UNL     1     157.717 159.216 168.124  0.00  0.00    +0.000 OA
ATOM      5  N1  UNL     1     157.026 157.098 168.632  0.00  0.00    +0.000 N 
ATOM      6  H10 UNL     1     156.998 156.082 168.424  0.00  0.00    +0.000 HD
BRANCH   3  11
ATOM      7  C1  UNL     1     156.778 156.000 165.430  0.00  0.00    +0.000 C 
ATOM      8  C2  UNL     1     158.093 156.685 165.546  0.00  0.00    +0.000 C 
ATOM      9  C3  UNL     1     159.242 155.938 164.842  0.00  0.00    +0.000 C 
ATOM     10  C4  UNL     1     158.012 158.180 165.235  0.00  0.00    +0.000 C 
ATOM     11  C5  UNL     1     158.487 157.629 166.583  0.00  0.00    +0.000 C 
ENDBRANCH   3  11
ENDBRANCH   1   5
BRANCH   1  12
ATOM     12  C16 UNL     1     157.078 157.978 170.986  0.00  0.00    +0.000 C 
ATOM     13  O5  UNL     1     156.453 157.971 172.058  0.00  0.00    +0.000 OA
BRANCH  12  14
ATOM     14  O4  UNL     1     158.411 158.270 170.947  0.00  0.00    +0.000 OA
ATOM     15  H26 UNL     1     158.756 159.085 171.447  0.00  0.00    +0.000 HD
ENDBRANCH  12  14
ENDBRANCH   1  12
BRANCH   2  16
ATOM     16  C9  UNL     1     154.391 157.564 168.373  0.00  0.00    +0.000 C 
BRANCH  16  17
ATOM     17  C10 UNL     1     153.890 158.774 167.616  0.00  0.00    +0.000 C 
BRANCH  17  18
ATOM     18  C11 UNL     1     154.437 158.718 166.208  0.00  0.00    +0.000 C 
BRANCH  18  19
ATOM     19  C12 UNL     1     154.589 160.064 165.575  0.00  0.00    +0.000 C 
BRANCH  19  20
ATOM     20  S1  UNL     1     153.736 161.295 166.631  0.00  0.00    +0.000 S 
BRANCH  20  21
ATOM     21  C13 UNL     1     152.489 162.091 165.611  0.00  0.00    +0.000 C 
BRANCH  21  22
ATOM     22  C14 UNL     1     153.046 162.668 164.334  0.00  0.00    +0.000 C 
BRANCH  22  23
ATOM     23  N2  UNL     1     151.961 163.176 163.549  0.00  0.00    +0.000 NA
ATOM     24  H23 UNL     1     151.207 163.616 164.123  0.00  0.00    +0.000 HD
ATOM     25  H24 UNL     1     151.557 162.363 163.004  0.00  0.00    +0.000 HD
ENDBRANCH  22  23
BRANCH  22  26
ATOM     26  C15 UNL     1     154.022 163.726 164.690  0.00  0.00    +0.000 C 
ATOM     27  O3  UNL     1     155.203 163.658 164.273  0.00  0.00    +0.000 OA
BRANCH  26  28
ATOM     28  O2  UNL     1     153.653 164.795 165.477  0.00  0.00    +0.000 OA
ATOM     29  H25 UNL     1     152.679 165.123 165.563  0.00  0.00    +0.000 HD
ENDBRANCH  26  28
ENDBRANCH  22  26
ENDBRANCH  21  22
ENDBRANCH  20  21
ENDBRANCH  19  20
ENDBRANCH  18  19
ENDBRANCH  17  18
ENDBRANCH  16  17
ENDBRANCH   2  16
TORSDOF 14
ENDMDL
