MODEL 1
REMARK VINA RESULT:      -7.7      0.000      0.000
REMARK  Name = ./3D_structures\o80_MMV003069_3D.pdb
REMARK  5 active torsions:
REMARK  status: ('A' for Active; 'I' for Inactive)
REMARK    1  A    between atoms: C1_1  and  C2_2
REMARK    2  A    between atoms: C15_17  and  O2_18
REMARK    3  A    between atoms: C18_21  and  C19_22
REMARK    4  A    between atoms: C23_26  and  C24_27
REMARK    5  A    between atoms: C26_29  and  C27_30
REMARK                            x       y       z     vdW  Elec       q    Type
REMARK                         _______ _______ _______ _____ _____    ______ ____
ROOT
ATOM      1  C1  UNL     1     155.293 159.843 173.924  0.00  0.00    +0.000 C 
ATOM      2  C2  UNL     1     154.901 160.801 172.831  0.00  0.00    +0.000 C 
ATOM      3  C3  UNL     1     155.771 162.016 172.778  0.00  0.00    +0.000 C 
ATOM      4  C4  UNL     1     157.047 161.812 171.996  0.00  0.00    +0.000 C 
ATOM      5  C5  UNL     1     156.902 160.824 170.876  0.00  0.00    +0.000 C 
ATOM      6  N1  UNL     1     155.493 160.883 170.452  0.00  0.00    +0.000 NA
ATOM      7  C6  UNL     1     154.763 160.130 171.485  0.00  0.00    +0.000 C 
ATOM      8  O1  UNL     1     157.147 159.529 171.247  0.00  0.00    +0.000 OA
ATOM      9  C7  UNL     1     157.872 158.885 170.308  0.00  0.00    +0.000 C 
ATOM     10  C8  UNL     1     157.024 158.307 169.158  0.00  0.00    +0.000 C 
ATOM     11  C9  UNL     1     158.119 158.067 168.218  0.00  0.00    +0.000 C 
ATOM     12  C10 UNL     1     157.867 157.614 166.863  0.00  0.00    +0.000 C 
ATOM     13  C11 UNL     1     156.887 156.468 166.724  0.00  0.00    +0.000 C 
ATOM     14  C12 UNL     1     156.710 156.304 165.229  0.00  0.00    +0.000 C 
ATOM     15  C13 UNL     1     158.017 155.873 164.626  0.00  0.00    +0.000 C 
ATOM     16  C14 UNL     1     157.845 155.730 163.149  0.00  0.00    +0.000 C 
ATOM     17  C15 UNL     1     159.071 155.323 162.416  0.00  0.00    +0.000 C 
ATOM     18  C16 UNL     1     160.339 155.925 162.909  0.00  0.00    +0.000 C 
ATOM     19  C17 UNL     1     160.379 156.174 164.386  0.00  0.00    +0.000 C 
ATOM     20  C18 UNL     1     159.123 156.898 164.868  0.00  0.00    +0.000 C 
ATOM     21  C19 UNL     1     158.930 158.126 164.042  0.00  0.00    +0.000 C 
ATOM     22  C20 UNL     1     159.239 157.151 166.346  0.00  0.00    +0.000 C 
ATOM     23  C21 UNL     1     160.375 157.967 166.770  0.00  0.00    +0.000 C 
ATOM     24  C22 UNL     1     160.196 159.116 167.667  0.00  0.00    +0.000 C 
ATOM     25  C23 UNL     1     158.799 159.420 168.118  0.00  0.00    +0.000 C 
ATOM     26  C24 UNL     1     158.170 160.331 167.110  0.00  0.00    +0.000 C 
ATOM     27  C25 UNL     1     158.687 159.914 169.525  0.00  0.00    +0.000 C 
ATOM     28  C26 UNL     1     157.833 161.134 169.704  0.00  0.00    +0.000 C 
ATOM     29  C27 UNL     1     158.729 162.319 170.014  0.00  0.00    +0.000 C 
ATOM     30  H9  UNL     1     155.158 161.871 170.415  0.00  0.00    +0.000 HD
ENDROOT
BRANCH  17  31
ATOM     31  O2  UNL     1     158.902 155.695 161.064  0.00  0.00    +0.000 OA
ATOM     32  H25 UNL     1     157.997 156.073 160.908  0.00  0.00    +0.000 HD
ENDBRANCH  17  31
TORSDOF 1
ENDMDL
MODEL 2
REMARK VINA RESULT:      -7.3      2.184      8.409
REMARK  Name = ./3D_structures\o80_MMV003069_3D.pdb
REMARK  5 active torsions:
REMARK  status: ('A' for Active; 'I' for Inactive)
REMARK    1  A    between atoms: C1_1  and  C2_2
REMARK    2  A    between atoms: C15_17  and  O2_18
REMARK    3  A    between atoms: C18_21  and  C19_22
REMARK    4  A    between atoms: C23_26  and  C24_27
REMARK    5  A    between atoms: C26_29  and  C27_30
REMARK                            x       y       z     vdW  Elec       q    Type
REMARK                         _______ _______ _______ _____ _____    ______ ____
ROOT
ATOM      1  C1  UNL     1     162.009 157.561 163.388  0.00  0.00    +0.000 C 
ATOM      2  C2  UNL     1     160.703 158.177 162.959  0.00  0.00    +0.000 C 
ATOM      3  C3  UNL     1     159.683 157.162 162.555  0.00  0.00    +0.000 C 
ATOM      4  C4  UNL     1     158.908 156.587 163.717  0.00  0.00    +0.000 C 
ATOM      5  C5  UNL     1     158.737 157.556 164.849  0.00  0.00    +0.000 C 
ATOM      6  N1  UNL     1     158.746 158.900 164.249  0.00  0.00    +0.000 NA
ATOM      7  C6  UNL     1     160.165 159.169 163.963  0.00  0.00    +0.000 C 
ATOM      8  O1  UNL     1     159.758 157.525 165.761  0.00  0.00    +0.000 OA
ATOM      9  C7  UNL     1     159.283 157.601 167.023  0.00  0.00    +0.000 C 
ATOM     10  C8  UNL     1     159.012 159.041 167.499  0.00  0.00    +0.000 C 
ATOM     11  C9  UNL     1     158.190 158.705 168.661  0.00  0.00    +0.000 C 
ATOM     12  C10 UNL     1     157.538 159.733 169.450  0.00  0.00    +0.000 C 
ATOM     13  C11 UNL     1     158.401 160.916 169.830  0.00  0.00    +0.000 C 
ATOM     14  C12 UNL     1     157.447 161.877 170.509  0.00  0.00    +0.000 C 
ATOM     15  C13 UNL     1     156.938 161.247 171.775  0.00  0.00    +0.000 C 
ATOM     16  C14 UNL     1     155.982 162.188 172.432  0.00  0.00    +0.000 C 
ATOM     17  C15 UNL     1     155.383 161.684 173.695  0.00  0.00    +0.000 C 
ATOM     18  C16 UNL     1     155.048 160.235 173.709  0.00  0.00    +0.000 C 
ATOM     19  C17 UNL     1     155.971 159.372 172.904  0.00  0.00    +0.000 C 
ATOM     20  C18 UNL     1     156.194 159.941 171.504  0.00  0.00    +0.000 C 
ATOM     21  C19 UNL     1     154.866 160.182 170.868  0.00  0.00    +0.000 C 
ATOM     22  C20 UNL     1     157.097 159.015 170.736  0.00  0.00    +0.000 C 
ATOM     23  C21 UNL     1     156.609 157.650 170.555  0.00  0.00    +0.000 C 
ATOM     24  C22 UNL     1     156.599 157.013 169.230  0.00  0.00    +0.000 C 
ATOM     25  C23 UNL     1     157.097 157.829 168.076  0.00  0.00    +0.000 C 
ATOM     26  C24 UNL     1     155.944 158.606 167.520  0.00  0.00    +0.000 C 
ATOM     27  C25 UNL     1     157.855 157.057 167.043  0.00  0.00    +0.000 C 
ATOM     28  C26 UNL     1     157.442 157.319 165.625  0.00  0.00    +0.000 C 
ATOM     29  C27 UNL     1     156.701 156.104 165.098  0.00  0.00    +0.000 C 
ATOM     30  H9  UNL     1     158.187 158.917 163.368  0.00  0.00    +0.000 HD
ENDROOT
BRANCH  17  31
ATOM     31  O2  UNL     1     154.197 162.415 173.925  0.00  0.00    +0.000 OA
ATOM     32  H25 UNL     1     153.580 161.917 174.522  0.00  0.00    +0.000 HD
ENDBRANCH  17  31
TORSDOF 1
ENDMDL
MODEL 3
REMARK VINA RESULT:      -7.2      2.313      3.980
REMARK  Name = ./3D_structures\o80_MMV003069_3D.pdb
REMARK  5 active torsions:
REMARK  status: ('A' for Active; 'I' for Inactive)
REMARK    1  A    between atoms: C1_1  and  C2_2
REMARK    2  A    between atoms: C15_17  and  O2_18
REMARK    3  A    between atoms: C18_21  and  C19_22
REMARK    4  A    between atoms: C23_26  and  C24_27
REMARK    5  A    between atoms: C26_29  and  C27_30
REMARK                            x       y       z     vdW  Elec       q    Type
REMARK                         _______ _______ _______ _____ _____    ______ ____
ROOT
ATOM      1  C1  UNL     1     152.801 162.890 172.915  0.00  0.00    +0.000 C 
ATOM      2  C2  UNL     1     153.015 161.459 173.334  0.00  0.00    +0.000 C 
ATOM      3  C3  UNL     1     151.825 160.591 173.077  0.00  0.00    +0.000 C 
ATOM      4  C4  UNL     1     151.759 160.058 171.665  0.00  0.00    +0.000 C 
ATOM      5  C5  UNL     1     153.111 159.846 171.051  0.00  0.00    +0.000 C 
ATOM      6  N1  UNL     1     154.031 159.559 172.163  0.00  0.00    +0.000 NA
ATOM      7  C6  UNL     1     154.291 160.871 172.779  0.00  0.00    +0.000 C 
ATOM      8  O1  UNL     1     153.603 160.950 170.407  0.00  0.00    +0.000 OA
ATOM      9  C7  UNL     1     154.190 160.608 169.240  0.00  0.00    +0.000 C 
ATOM     10  C8  UNL     1     155.652 160.147 169.393  0.00  0.00    +0.000 C 
ATOM     11  C9  UNL     1     155.793 159.525 168.075  0.00  0.00    +0.000 C 
ATOM     12  C10 UNL     1     156.991 158.796 167.707  0.00  0.00    +0.000 C 
ATOM     13  C11 UNL     1     158.303 159.478 168.030  0.00  0.00    +0.000 C 
ATOM     14  C12 UNL     1     159.359 158.452 167.677  0.00  0.00    +0.000 C 
ATOM     15  C13 UNL     1     159.319 158.199 166.196  0.00  0.00    +0.000 C 
ATOM     16  C14 UNL     1     160.349 157.172 165.854  0.00  0.00    +0.000 C 
ATOM     17  C15 UNL     1     160.410 156.810 164.414  0.00  0.00    +0.000 C 
ATOM     18  C16 UNL     1     159.097 156.732 163.719  0.00  0.00    +0.000 C 
ATOM     19  C17 UNL     1     158.066 157.697 164.220  0.00  0.00    +0.000 C 
ATOM     20  C18 UNL     1     157.961 157.666 165.744  0.00  0.00    +0.000 C 
ATOM     21  C19 UNL     1     157.747 156.255 166.181  0.00  0.00    +0.000 C 
ATOM     22  C20 UNL     1     156.890 158.626 166.182  0.00  0.00    +0.000 C 
ATOM     23  C21 UNL     1     155.547 158.364 165.669  0.00  0.00    +0.000 C 
ATOM     24  C22 UNL     1     154.384 158.320 166.566  0.00  0.00    +0.000 C 
ATOM     25  C23 UNL     1     154.637 158.542 168.027  0.00  0.00    +0.000 C 
ATOM     26  C24 UNL     1     154.953 157.220 168.653  0.00  0.00    +0.000 C 
ATOM     27  C25 UNL     1     153.567 159.305 168.740  0.00  0.00    +0.000 C 
ATOM     28  C26 UNL     1     153.115 158.702 170.037  0.00  0.00    +0.000 C 
ATOM     29  C27 UNL     1     151.722 158.129 169.852  0.00  0.00    +0.000 C 
ATOM     30  H9  UNL     1     153.589 158.913 172.854  0.00  0.00    +0.000 HD
ENDROOT
BRANCH  17  31
ATOM     31  O2  UNL     1     161.035 155.547 164.320  0.00  0.00    +0.000 OA
ATOM     32  H25 UNL     1     162.008 155.615 164.506  0.00  0.00    +0.000 HD
ENDBRANCH  17  31
TORSDOF 1
ENDMDL
MODEL 4
REMARK VINA RESULT:      -7.2      1.726      2.551
REMARK  Name = ./3D_structures\o80_MMV003069_3D.pdb
REMARK  5 active torsions:
REMARK  status: ('A' for Active; 'I' for Inactive)
REMARK    1  A    between atoms: C1_1  and  C2_2
REMARK    2  A    between atoms: C15_17  and  O2_18
REMARK    3  A    between atoms: C18_21  and  C19_22
REMARK    4  A    between atoms: C23_26  and  C24_27
REMARK    5  A    between atoms: C26_29  and  C27_30
REMARK                            x       y       z     vdW  Elec       q    Type
REMARK                         _______ _______ _______ _____ _____    ______ ____
ROOT
ATOM      1  C1  UNL     1     151.738 160.095 173.888  0.00  0.00    +0.000 C 
ATOM      2  C2  UNL     1     152.148 161.368 173.195  0.00  0.00    +0.000 C 
ATOM      3  C3  UNL     1     153.221 162.110 173.925  0.00  0.00    +0.000 C 
ATOM      4  C4  UNL     1     154.615 161.617 173.614  0.00  0.00    +0.000 C 
ATOM      5  C5  UNL     1     154.754 161.078 172.221  0.00  0.00    +0.000 C 
ATOM      6  N1  UNL     1     153.764 161.794 171.400  0.00  0.00    +0.000 NA
ATOM      7  C6  UNL     1     152.477 161.162 171.736  0.00  0.00    +0.000 C 
ATOM      8  O1  UNL     1     154.465 159.744 172.115  0.00  0.00    +0.000 OA
ATOM      9  C7  UNL     1     155.350 159.120 171.308  0.00  0.00    +0.000 C 
ATOM     10  C8  UNL     1     155.008 159.229 169.810  0.00  0.00    +0.000 C 
ATOM     11  C9  UNL     1     156.311 158.816 169.288  0.00  0.00    +0.000 C 
ATOM     12  C10 UNL     1     156.602 158.849 167.868  0.00  0.00    +0.000 C 
ATOM     13  C11 UNL     1     155.541 158.259 166.964  0.00  0.00    +0.000 C 
ATOM     14  C12 UNL     1     156.034 158.553 165.562  0.00  0.00    +0.000 C 
ATOM     15  C13 UNL     1     157.315 157.803 165.327  0.00  0.00    +0.000 C 
ATOM     16  C14 UNL     1     157.809 158.111 163.950  0.00  0.00    +0.000 C 
ATOM     17  C15 UNL     1     159.086 157.445 163.586  0.00  0.00    +0.000 C 
ATOM     18  C16 UNL     1     160.092 157.354 164.677  0.00  0.00    +0.000 C 
ATOM     19  C17 UNL     1     159.513 157.193 166.050  0.00  0.00    +0.000 C 
ATOM     20  C18 UNL     1     158.405 158.212 166.315  0.00  0.00    +0.000 C 
ATOM     21  C19 UNL     1     158.931 159.578 166.024  0.00  0.00    +0.000 C 
ATOM     22  C20 UNL     1     157.890 158.024 167.715  0.00  0.00    +0.000 C 
ATOM     23  C21 UNL     1     158.871 158.191 168.786  0.00  0.00    +0.000 C 
ATOM     24  C22 UNL     1     158.598 159.056 169.941  0.00  0.00    +0.000 C 
ATOM     25  C23 UNL     1     157.279 159.767 169.967  0.00  0.00    +0.000 C 
ATOM     26  C24 UNL     1     157.436 161.071 169.247  0.00  0.00    +0.000 C 
ATOM     27  C25 UNL     1     156.664 159.900 171.323  0.00  0.00    +0.000 C 
ATOM     28  C26 UNL     1     156.163 161.273 171.661  0.00  0.00    +0.000 C 
ATOM     29  C27 UNL     1     157.085 161.890 172.698  0.00  0.00    +0.000 C 
ATOM     30  H9  UNL     1     153.745 162.809 171.641  0.00  0.00    +0.000 HD
ENDROOT
BRANCH  17  31
ATOM     31  O2  UNL     1     159.656 158.175 162.519  0.00  0.00    +0.000 OA
ATOM     32  H25 UNL     1     159.170 159.028 162.370  0.00  0.00    +0.000 HD
ENDBRANCH  17  31
TORSDOF 1
ENDMDL
MODEL 5
REMARK VINA RESULT:      -7.2      5.435      6.892
REMARK  Name = ./3D_structures\o80_MMV003069_3D.pdb
REMARK  5 active torsions:
REMARK  status: ('A' for Active; 'I' for Inactive)
REMARK    1  A    between atoms: C1_1  and  C2_2
REMARK    2  A    between atoms: C15_17  and  O2_18
REMARK    3  A    between atoms: C18_21  and  C19_22
REMARK    4  A    between atoms: C23_26  and  C24_27
REMARK    5  A    between atoms: C26_29  and  C27_30
REMARK                            x       y       z     vdW  Elec       q    Type
REMARK                         _______ _______ _______ _____ _____    ______ ____
ROOT
ATOM      1  C1  UNL     1     147.367 164.636 166.361  0.00  0.00    +0.000 C 
ATOM      2  C2  UNL     1     148.567 165.407 166.847  0.00  0.00    +0.000 C 
ATOM      3  C3  UNL     1     148.582 165.590 168.330  0.00  0.00    +0.000 C 
ATOM      4  C4  UNL     1     149.166 164.415 169.079  0.00  0.00    +0.000 C 
ATOM      5  C5  UNL     1     150.226 163.690 168.303  0.00  0.00    +0.000 C 
ATOM      6  N1  UNL     1     150.842 164.687 167.412  0.00  0.00    +0.000 NA
ATOM      7  C6  UNL     1     149.870 164.857 166.319  0.00  0.00    +0.000 C 
ATOM      8  O1  UNL     1     149.738 162.693 167.503  0.00  0.00    +0.000 OA
ATOM      9  C7  UNL     1     150.525 161.596 167.561  0.00  0.00    +0.000 C 
ATOM     10  C8  UNL     1     151.738 161.652 166.613  0.00  0.00    +0.000 C 
ATOM     11  C9  UNL     1     152.501 160.560 167.219  0.00  0.00    +0.000 C 
ATOM     12  C10 UNL     1     153.844 160.239 166.774  0.00  0.00    +0.000 C 
ATOM     13  C11 UNL     1     154.038 160.153 165.276  0.00  0.00    +0.000 C 
ATOM     14  C12 UNL     1     155.529 159.952 165.100  0.00  0.00    +0.000 C 
ATOM     15  C13 UNL     1     155.917 158.627 165.695  0.00  0.00    +0.000 C 
ATOM     16  C14 UNL     1     157.391 158.440 165.538  0.00  0.00    +0.000 C 
ATOM     17  C15 UNL     1     157.919 157.171 166.101  0.00  0.00    +0.000 C 
ATOM     18  C16 UNL     1     157.299 156.733 167.380  0.00  0.00    +0.000 C 
ATOM     19  C17 UNL     1     155.851 157.088 167.526  0.00  0.00    +0.000 C 
ATOM     20  C18 UNL     1     155.595 158.556 167.187  0.00  0.00    +0.000 C 
ATOM     21  C19 UNL     1     156.521 159.403 167.993  0.00  0.00    +0.000 C 
ATOM     22  C20 UNL     1     154.136 158.858 167.386  0.00  0.00    +0.000 C 
ATOM     23  C21 UNL     1     153.617 158.650 168.736  0.00  0.00    +0.000 C 
ATOM     24  C22 UNL     1     152.832 159.687 169.420  0.00  0.00    +0.000 C 
ATOM     25  C23 UNL     1     152.598 160.968 168.678  0.00  0.00    +0.000 C 
ATOM     26  C24 UNL     1     153.742 161.890 168.964  0.00  0.00    +0.000 C 
ATOM     27  C25 UNL     1     151.256 161.588 168.903  0.00  0.00    +0.000 C 
ATOM     28  C26 UNL     1     151.278 163.055 169.212  0.00  0.00    +0.000 C 
ATOM     29  C27 UNL     1     150.929 163.253 170.676  0.00  0.00    +0.000 C 
ATOM     30  H9  UNL     1     150.991 165.590 167.911  0.00  0.00    +0.000 HD
ENDROOT
BRANCH  17  31
ATOM     31  O2  UNL     1     159.304 157.347 166.318  0.00  0.00    +0.000 OA
ATOM     32  H25 UNL     1     159.680 156.599 166.853  0.00  0.00    +0.000 HD
ENDBRANCH  17  31
TORSDOF 1
ENDMDL
MODEL 6
REMARK VINA RESULT:      -7.1      2.393      8.323
REMARK  Name = ./3D_structures\o80_MMV003069_3D.pdb
REMARK  5 active torsions:
REMARK  status: ('A' for Active; 'I' for Inactive)
REMARK    1  A    between atoms: C1_1  and  C2_2
REMARK    2  A    between atoms: C15_17  and  O2_18
REMARK    3  A    between atoms: C18_21  and  C19_22
REMARK    4  A    between atoms: C23_26  and  C24_27
REMARK    5  A    between atoms: C26_29  and  C27_30
REMARK                            x       y       z     vdW  Elec       q    Type
REMARK                         _______ _______ _______ _____ _____    ______ ____
ROOT
ATOM      1  C1  UNL     1     157.557 152.691 162.293  0.00  0.00    +0.000 C 
ATOM      2  C2  UNL     1     158.830 152.831 163.086  0.00  0.00    +0.000 C 
ATOM      3  C3  UNL     1     159.835 153.721 162.427  0.00  0.00    +0.000 C 
ATOM      4  C4  UNL     1     159.620 155.190 162.711  0.00  0.00    +0.000 C 
ATOM      5  C5  UNL     1     159.014 155.447 164.059  0.00  0.00    +0.000 C 
ATOM      6  N1  UNL     1     159.441 154.336 164.924  0.00  0.00    +0.000 NA
ATOM      7  C6  UNL     1     158.583 153.207 164.528  0.00  0.00    +0.000 C 
ATOM      8  O1  UNL     1     157.646 155.444 164.058  0.00  0.00    +0.000 OA
ATOM      9  C7  UNL     1     157.158 156.445 164.822  0.00  0.00    +0.000 C 
ATOM     10  C8  UNL     1     157.076 156.099 166.321  0.00  0.00    +0.000 C 
ATOM     11  C9  UNL     1     156.904 157.463 166.821  0.00  0.00    +0.000 C 
ATOM     12  C10 UNL     1     156.886 157.751 168.242  0.00  0.00    +0.000 C 
ATOM     13  C11 UNL     1     156.019 156.843 169.087  0.00  0.00    +0.000 C 
ATOM     14  C12 UNL     1     156.298 157.274 170.512  0.00  0.00    +0.000 C 
ATOM     15  C13 UNL     1     155.816 158.685 170.700  0.00  0.00    +0.000 C 
ATOM     16  C14 UNL     1     156.111 159.113 172.101  0.00  0.00    +0.000 C 
ATOM     17  C15 UNL     1     155.700 160.504 172.424  0.00  0.00    +0.000 C 
ATOM     18  C16 UNL     1     155.906 161.499 171.339  0.00  0.00    +0.000 C 
ATOM     19  C17 UNL     1     155.736 160.956 169.952  0.00  0.00    +0.000 C 
ATOM     20  C18 UNL     1     156.519 159.659 169.757  0.00  0.00    +0.000 C 
ATOM     21  C19 UNL     1     157.937 159.890 170.158  0.00  0.00    +0.000 C 
ATOM     22  C20 UNL     1     156.338 159.184 168.342  0.00  0.00    +0.000 C 
ATOM     23  C21 UNL     1     156.789 160.101 167.297  0.00  0.00    +0.000 C 
ATOM     24  C22 UNL     1     157.666 159.645 166.209  0.00  0.00    +0.000 C 
ATOM     25  C23 UNL     1     158.087 158.206 166.227  0.00  0.00    +0.000 C 
ATOM     26  C24 UNL     1     159.334 158.093 167.048  0.00  0.00    +0.000 C 
ATOM     27  C25 UNL     1     158.194 157.567 164.880  0.00  0.00    +0.000 C 
ATOM     28  C26 UNL     1     159.454 156.789 164.645  0.00  0.00    +0.000 C 
ATOM     29  C27 UNL     1     160.329 157.554 163.668  0.00  0.00    +0.000 C 
ATOM     30  H9  UNL     1     160.446 154.105 164.763  0.00  0.00    +0.000 HD
ENDROOT
BRANCH  17  31
ATOM     31  O2  UNL     1     156.447 160.917 173.550  0.00  0.00    +0.000 OA
ATOM     32  H25 UNL     1     156.206 161.841 173.819  0.00  0.00    +0.000 HD
ENDBRANCH  17  31
TORSDOF 1
ENDMDL
MODEL 7
REMARK VINA RESULT:      -7.0      2.477      8.300
REMARK  Name = ./3D_structures\o80_MMV003069_3D.pdb
REMARK  5 active torsions:
REMARK  status: ('A' for Active; 'I' for Inactive)
REMARK    1  A    between atoms: C1_1  and  C2_2
REMARK    2  A    between atoms: C15_17  and  O2_18
REMARK    3  A    between atoms: C18_21  and  C19_22
REMARK    4  A    between atoms: C23_26  and  C24_27
REMARK    5  A    between atoms: C26_29  and  C27_30
REMARK                            x       y       z     vdW  Elec       q    Type
REMARK                         _______ _______ _______ _____ _____    ______ ____
ROOT
ATOM      1  C1  UNL     1     161.310 155.076 164.373  0.00  0.00    +0.000 C 
ATOM      2  C2  UNL     1     161.509 156.569 164.356  0.00  0.00    +0.000 C 
ATOM      3  C3  UNL     1     160.825 157.237 163.207  0.00  0.00    +0.000 C 
ATOM      4  C4  UNL     1     159.368 157.540 163.464  0.00  0.00    +0.000 C 
ATOM      5  C5  UNL     1     159.069 157.821 164.907  0.00  0.00    +0.000 C 
ATOM      6  N1  UNL     1     160.302 158.382 165.483  0.00  0.00    +0.000 NA
ATOM      7  C6  UNL     1     161.182 157.218 165.680  0.00  0.00    +0.000 C 
ATOM      8  O1  UNL     1     158.767 156.702 165.635  0.00  0.00    +0.000 OA
ATOM      9  C7  UNL     1     157.734 156.933 166.474  0.00  0.00    +0.000 C 
ATOM     10  C8  UNL     1     158.150 157.588 167.805  0.00  0.00    +0.000 C 
ATOM     11  C9  UNL     1     156.817 158.017 168.229  0.00  0.00    +0.000 C 
ATOM     12  C10 UNL     1     156.626 158.824 169.420  0.00  0.00    +0.000 C 
ATOM     13  C11 UNL     1     157.370 158.363 170.654  0.00  0.00    +0.000 C 
ATOM     14  C12 UNL     1     157.107 159.446 171.680  0.00  0.00    +0.000 C 
ATOM     15  C13 UNL     1     155.639 159.467 172.002  0.00  0.00    +0.000 C 
ATOM     16  C14 UNL     1     155.379 160.549 172.999  0.00  0.00    +0.000 C 
ATOM     17  C15 UNL     1     153.956 160.696 173.399  0.00  0.00    +0.000 C 
ATOM     18  C16 UNL     1     152.963 160.508 172.308  0.00  0.00    +0.000 C 
ATOM     19  C17 UNL     1     153.363 159.510 171.264  0.00  0.00    +0.000 C 
ATOM     20  C18 UNL     1     154.787 159.756 170.768  0.00  0.00    +0.000 C 
ATOM     21  C19 UNL     1     154.905 161.179 170.336  0.00  0.00    +0.000 C 
ATOM     22  C20 UNL     1     155.116 158.749 169.701  0.00  0.00    +0.000 C 
ATOM     23  C21 UNL     1     154.257 158.765 168.519  0.00  0.00    +0.000 C 
ATOM     24  C22 UNL     1     154.826 158.801 167.164  0.00  0.00    +0.000 C 
ATOM     25  C23 UNL     1     156.320 158.833 167.050  0.00  0.00    +0.000 C 
ATOM     26  C24 UNL     1     156.762 160.263 167.086  0.00  0.00    +0.000 C 
ATOM     27  C25 UNL     1     156.878 158.061 165.897  0.00  0.00    +0.000 C 
ATOM     28  C26 UNL     1     157.901 158.791 165.080  0.00  0.00    +0.000 C 
ATOM     29  C27 UNL     1     157.288 159.156 163.740  0.00  0.00    +0.000 C 
ATOM     30  H9  UNL     1     160.741 159.065 164.828  0.00  0.00    +0.000 HD
ENDROOT
BRANCH  17  31
ATOM     31  O2  UNL     1     153.795 161.997 173.925  0.00  0.00    +0.000 OA
ATOM     32  H25 UNL     1     153.777 162.675 173.200  0.00  0.00    +0.000 HD
ENDBRANCH  17  31
TORSDOF 1
ENDMDL
MODEL 8
REMARK VINA RESULT:      -6.9      2.037      3.598
REMARK  Name = ./3D_structures\o80_MMV003069_3D.pdb
REMARK  5 active torsions:
REMARK  status: ('A' for Active; 'I' for Inactive)
REMARK    1  A    between atoms: C1_1  and  C2_2
REMARK    2  A    between atoms: C15_17  and  O2_18
REMARK    3  A    between atoms: C18_21  and  C19_22
REMARK    4  A    between atoms: C23_26  and  C24_27
REMARK    5  A    between atoms: C26_29  and  C27_30
REMARK                            x       y       z     vdW  Elec       q    Type
REMARK                         _______ _______ _______ _____ _____    ______ ____
ROOT
ATOM      1  C1  UNL     1     151.832 163.731 172.594  0.00  0.00    +0.000 C 
ATOM      2  C2  UNL     1     153.320 163.891 172.762  0.00  0.00    +0.000 C 
ATOM      3  C3  UNL     1     153.863 163.124 173.925  0.00  0.00    +0.000 C 
ATOM      4  C4  UNL     1     154.160 161.677 173.608  0.00  0.00    +0.000 C 
ATOM      5  C5  UNL     1     154.570 161.457 172.182  0.00  0.00    +0.000 C 
ATOM      6  N1  UNL     1     155.208 162.706 171.737  0.00  0.00    +0.000 NA
ATOM      7  C6  UNL     1     154.086 163.626 171.487  0.00  0.00    +0.000 C 
ATOM      8  O1  UNL     1     153.519 161.227 171.336  0.00  0.00    +0.000 OA
ATOM      9  C7  UNL     1     153.808 160.239 170.461  0.00  0.00    +0.000 C 
ATOM     10  C8  UNL     1     154.593 160.716 169.224  0.00  0.00    +0.000 C 
ATOM     11  C9  UNL     1     155.034 159.400 168.761  0.00  0.00    +0.000 C 
ATOM     12  C10 UNL     1     155.945 159.258 167.642  0.00  0.00    +0.000 C 
ATOM     13  C11 UNL     1     155.617 160.085 166.418  0.00  0.00    +0.000 C 
ATOM     14  C12 UNL     1     156.787 159.855 165.483  0.00  0.00    +0.000 C 
ATOM     15  C13 UNL     1     156.809 158.409 165.075  0.00  0.00    +0.000 C 
ATOM     16  C14 UNL     1     157.975 158.180 164.169  0.00  0.00    +0.000 C 
ATOM     17  C15 UNL     1     158.131 156.780 163.698  0.00  0.00    +0.000 C 
ATOM     18  C16 UNL     1     157.821 155.730 164.704  0.00  0.00    +0.000 C 
ATOM     19  C17 UNL     1     156.737 156.093 165.673  0.00  0.00    +0.000 C 
ATOM     20  C18 UNL     1     156.964 157.478 166.276  0.00  0.00    +0.000 C 
ATOM     21  C19 UNL     1     158.342 157.534 166.845  0.00  0.00    +0.000 C 
ATOM     22  C20 UNL     1     155.867 157.770 167.263  0.00  0.00    +0.000 C 
ATOM     23  C21 UNL     1     155.754 156.843 168.387  0.00  0.00    +0.000 C 
ATOM     24  C22 UNL     1     155.674 157.330 169.771  0.00  0.00    +0.000 C 
ATOM     25  C23 UNL     1     155.724 158.813 169.979  0.00  0.00    +0.000 C 
ATOM     26  C24 UNL     1     157.160 159.219 170.103  0.00  0.00    +0.000 C 
ATOM     27  C25 UNL     1     154.858 159.322 171.086  0.00  0.00    +0.000 C 
ATOM     28  C26 UNL     1     155.529 160.276 172.029  0.00  0.00    +0.000 C 
ATOM     29  C27 UNL     1     155.753 159.576 173.358  0.00  0.00    +0.000 C 
ATOM     30  H9  UNL     1     155.834 163.088 172.478  0.00  0.00    +0.000 HD
ENDROOT
BRANCH  17  31
ATOM     31  O2  UNL     1     159.472 156.616 163.287  0.00  0.00    +0.000 OA
ATOM     32  H25 UNL     1     159.549 155.915 162.588  0.00  0.00    +0.000 HD
ENDBRANCH  17  31
TORSDOF 1
ENDMDL
MODEL 9
REMARK VINA RESULT:      -6.9      2.837      8.595
REMARK  Name = ./3D_structures\o80_MMV003069_3D.pdb
REMARK  5 active torsions:
REMARK  status: ('A' for Active; 'I' for Inactive)
REMARK    1  A    between atoms: C1_1  and  C2_2
REMARK    2  A    between atoms: C15_17  and  O2_18
REMARK    3  A    between atoms: C18_21  and  C19_22
REMARK    4  A    between atoms: C23_26  and  C24_27
REMARK    5  A    between atoms: C26_29  and  C27_30
REMARK                            x       y       z     vdW  Elec       q    Type
REMARK                         _______ _______ _______ _____ _____    ______ ____
ROOT
ATOM      1  C1  UNL     1     163.744 157.155 160.774  0.00  0.00    +0.000 C 
ATOM      2  C2  UNL     1     163.018 158.474 160.753  0.00  0.00    +0.000 C 
ATOM      3  C3  UNL     1     161.864 158.491 159.802  0.00  0.00    +0.000 C 
ATOM      4  C4  UNL     1     160.593 157.921 160.385  0.00  0.00    +0.000 C 
ATOM      5  C5  UNL     1     160.475 158.133 161.865  0.00  0.00    +0.000 C 
ATOM      6  N1  UNL     1     161.223 159.364 162.168  0.00  0.00    +0.000 NA
ATOM      7  C6  UNL     1     162.638 158.955 162.133  0.00  0.00    +0.000 C 
ATOM      8  O1  UNL     1     161.039 157.134 162.612  0.00  0.00    +0.000 OA
ATOM      9  C7  UNL     1     160.256 156.815 163.665  0.00  0.00    +0.000 C 
ATOM     10  C8  UNL     1     160.457 157.731 164.888  0.00  0.00    +0.000 C 
ATOM     11  C9  UNL     1     159.241 157.352 165.609  0.00  0.00    +0.000 C 
ATOM     12  C10 UNL     1     158.848 158.024 166.833  0.00  0.00    +0.000 C 
ATOM     13  C11 UNL     1     159.944 158.218 167.859  0.00  0.00    +0.000 C 
ATOM     14  C12 UNL     1     159.300 159.053 168.946  0.00  0.00    +0.000 C 
ATOM     15  C13 UNL     1     158.199 158.255 169.587  0.00  0.00    +0.000 C 
ATOM     16  C14 UNL     1     157.552 159.088 170.646  0.00  0.00    +0.000 C 
ATOM     17  C15 UNL     1     156.428 158.427 171.356  0.00  0.00    +0.000 C 
ATOM     18  C16 UNL     1     155.547 157.580 170.508  0.00  0.00    +0.000 C 
ATOM     19  C17 UNL     1     156.245 156.891 169.375  0.00  0.00    +0.000 C 
ATOM     20  C18 UNL     1     157.120 157.860 168.582  0.00  0.00    +0.000 C 
ATOM     21  C19 UNL     1     156.290 159.030 168.173  0.00  0.00    +0.000 C 
ATOM     22  C20 UNL     1     157.763 157.120 167.441  0.00  0.00    +0.000 C 
ATOM     23  C21 UNL     1     156.849 156.506 166.480  0.00  0.00    +0.000 C 
ATOM     24  C22 UNL     1     157.010 156.715 165.035  0.00  0.00    +0.000 C 
ATOM     25  C23 UNL     1     158.140 157.594 164.592  0.00  0.00    +0.000 C 
ATOM     26  C24 UNL     1     157.652 159.009 164.567  0.00  0.00    +0.000 C 
ATOM     27  C25 UNL     1     158.808 157.166 163.324  0.00  0.00    +0.000 C 
ATOM     28  C26 UNL     1     159.021 158.259 162.319  0.00  0.00    +0.000 C 
ATOM     29  C27 UNL     1     158.064 158.052 161.159  0.00  0.00    +0.000 C 
ATOM     30  H9  UNL     1     161.038 160.097 161.450  0.00  0.00    +0.000 HD
ENDROOT
BRANCH  17  31
ATOM     31  O2  UNL     1     155.637 159.442 171.938  0.00  0.00    +0.000 OA
ATOM     32  H25 UNL     1     155.457 159.250 172.896  0.00  0.00    +0.000 HD
ENDBRANCH  17  31
TORSDOF 1
ENDMDL
