MODEL 1
REMARK VINA RESULT:      -6.1      0.000      0.000
REMARK  Name = ./3D_structures\o8_MMV1633963_3D.pdb
REMARK  6 active torsions:
REMARK  status: ('A' for Active; 'I' for Inactive)
REMARK    1  A    between atoms: C5_6  and  O1_8
REMARK    2  A    between atoms: O1_8  and  C7_9
REMARK    3  A    between atoms: C9_11  and  C13_15
REMARK    4  A    between atoms: C14_16  and  C15_17
REMARK    5  A    between atoms: C16_18  and  C17_19
REMARK    6  A    between atoms: C17_19  and  O3_21
REMARK                            x       y       z     vdW  Elec       q    Type
REMARK                         _______ _______ _______ _____ _____    ______ ____
ROOT
ATOM      1  C7  UNL     1     151.115 164.906 166.214  0.00  0.00    +0.000 A 
ATOM      2  C8  UNL     1     151.420 163.611 166.626  0.00  0.00    +0.000 A 
ATOM      3  C9  UNL     1     152.105 162.755 165.796  0.00  0.00    +0.000 A 
ATOM      4  C10 UNL     1     152.463 163.258 164.547  0.00  0.00    +0.000 A 
ATOM      5  C11 UNL     1     152.161 164.540 164.141  0.00  0.00    +0.000 A 
ATOM      6  C12 UNL     1     151.473 165.396 164.977  0.00  0.00    +0.000 A 
ENDROOT
BRANCH   3   7
ATOM      7  C13 UNL     1     152.463 161.389 166.149  0.00  0.00    +0.000 C 
ATOM      8  C14 UNL     1     153.402 160.696 165.541  0.00  0.00    +0.000 C 
BRANCH   8   9
ATOM      9  C15 UNL     1     153.673 159.313 165.994  0.00  0.00    +0.000 C 
ATOM     10  C16 UNL     1     154.877 158.795 165.978  0.00  0.00    +0.000 C 
BRANCH  10  11
ATOM     11  C17 UNL     1     155.179 157.437 166.416  0.00  0.00    +0.000 C 
ATOM     12  O2  UNL     1     155.021 157.110 167.612  0.00  0.00    +0.000 OA
BRANCH  11  13
ATOM     13  O3  UNL     1     155.637 156.507 165.523  0.00  0.00    +0.000 OA
ATOM     14  H12 UNL     1     156.099 156.701 164.652  0.00  0.00    +0.000 HD
ENDBRANCH  11  13
ENDBRANCH  10  11
ENDBRANCH   8   9
ENDBRANCH   3   7
BRANCH   1  15
ATOM     15  O1  UNL     1     150.416 165.755 167.085  0.00  0.00    +0.000 OA
BRANCH  15  21
ATOM     16 CL1  UNL     1     145.570 166.570 165.429  0.00  0.00    +0.000 Cl
ATOM     17  C1  UNL     1     146.763 165.970 166.569  0.00  0.00    +0.000 A 
ATOM     18  C2  UNL     1     146.281 165.338 167.711  0.00  0.00    +0.000 A 
ATOM     19  C3  UNL     1     147.178 164.860 168.617  0.00  0.00    +0.000 A 
ATOM     20  C4  UNL     1     148.539 165.003 168.399  0.00  0.00    +0.000 A 
ATOM     21  C5  UNL     1     149.046 165.629 167.269  0.00  0.00    +0.000 A 
ATOM     22  C6  UNL     1     148.118 166.103 166.369  0.00  0.00    +0.000 A 
ATOM     23 CL2  UNL     1     146.586 164.055 170.071  0.00  0.00    +0.000 Cl
ENDBRANCH  15  21
ENDBRANCH   1  15
TORSDOF 6
ENDMDL
MODEL 2
REMARK VINA RESULT:      -6.0      0.165      1.914
REMARK  Name = ./3D_structures\o8_MMV1633963_3D.pdb
REMARK  6 active torsions:
REMARK  status: ('A' for Active; 'I' for Inactive)
REMARK    1  A    between atoms: C5_6  and  O1_8
REMARK    2  A    between atoms: O1_8  and  C7_9
REMARK    3  A    between atoms: C9_11  and  C13_15
REMARK    4  A    between atoms: C14_16  and  C15_17
REMARK    5  A    between atoms: C16_18  and  C17_19
REMARK    6  A    between atoms: C17_19  and  O3_21
REMARK                            x       y       z     vdW  Elec       q    Type
REMARK                         _______ _______ _______ _____ _____    ______ ____
ROOT
ATOM      1  C7  UNL     1     151.088 164.953 166.243  0.00  0.00    +0.000 A 
ATOM      2  C8  UNL     1     151.355 163.621 166.554  0.00  0.00    +0.000 A 
ATOM      3  C9  UNL     1     152.027 162.816 165.664  0.00  0.00    +0.000 A 
ATOM      4  C10 UNL     1     152.412 163.407 164.463  0.00  0.00    +0.000 A 
ATOM      5  C11 UNL     1     152.148 164.725 164.157  0.00  0.00    +0.000 A 
ATOM      6  C12 UNL     1     151.474 165.530 165.053  0.00  0.00    +0.000 A 
ENDROOT
BRANCH   3   7
ATOM      7  C13 UNL     1     152.344 161.418 165.910  0.00  0.00    +0.000 C 
ATOM      8  C14 UNL     1     153.447 160.831 165.494  0.00  0.00    +0.000 C 
BRANCH   8   9
ATOM      9  C15 UNL     1     153.655 159.400 165.810  0.00  0.00    +0.000 C 
ATOM     10  C16 UNL     1     154.807 158.936 166.231  0.00  0.00    +0.000 C 
BRANCH  10  11
ATOM     11  C17 UNL     1     155.047 157.534 166.550  0.00  0.00    +0.000 C 
ATOM     12  O2  UNL     1     154.876 157.113 167.715  0.00  0.00    +0.000 OA
BRANCH  11  13
ATOM     13  O3  UNL     1     155.460 156.663 165.579  0.00  0.00    +0.000 OA
ATOM     14  H12 UNL     1     156.397 156.573 165.226  0.00  0.00    +0.000 HD
ENDBRANCH  11  13
ENDBRANCH  10  11
ENDBRANCH   8   9
ENDBRANCH   3   7
BRANCH   1  15
ATOM     15  O1  UNL     1     150.402 165.748 167.172  0.00  0.00    +0.000 OA
BRANCH  15  21
ATOM     16 CL1  UNL     1     146.499 164.094 170.158  0.00  0.00    +0.000 Cl
ATOM     17  C1  UNL     1     147.170 164.846 168.721  0.00  0.00    +0.000 A 
ATOM     18  C2  UNL     1     146.265 165.298 167.766  0.00  0.00    +0.000 A 
ATOM     19  C3  UNL     1     146.752 165.887 166.638  0.00  0.00    +0.000 A 
ATOM     20  C4  UNL     1     148.117 166.030 166.454  0.00  0.00    +0.000 A 
ATOM     21  C5  UNL     1     149.041 165.588 167.392  0.00  0.00    +0.000 A 
ATOM     22  C6  UNL     1     148.524 164.997 168.522  0.00  0.00    +0.000 A 
ATOM     23 CL2  UNL     1     145.620 166.466 165.415  0.00  0.00    +0.000 Cl
ENDBRANCH  15  21
ENDBRANCH   1  15
TORSDOF 6
ENDMDL
MODEL 3
REMARK VINA RESULT:      -5.7      1.295      1.932
REMARK  Name = ./3D_structures\o8_MMV1633963_3D.pdb
REMARK  6 active torsions:
REMARK  status: ('A' for Active; 'I' for Inactive)
REMARK    1  A    between atoms: C5_6  and  O1_8
REMARK    2  A    between atoms: O1_8  and  C7_9
REMARK    3  A    between atoms: C9_11  and  C13_15
REMARK    4  A    between atoms: C14_16  and  C15_17
REMARK    5  A    between atoms: C16_18  and  C17_19
REMARK    6  A    between atoms: C17_19  and  O3_21
REMARK                            x       y       z     vdW  Elec       q    Type
REMARK                         _______ _______ _______ _____ _____    ______ ____
ROOT
ATOM      1  C7  UNL     1     150.643 165.167 165.692  0.00  0.00    +0.000 A 
ATOM      2  C8  UNL     1     150.887 163.870 166.136  0.00  0.00    +0.000 A 
ATOM      3  C9  UNL     1     151.981 163.169 165.683  0.00  0.00    +0.000 A 
ATOM      4  C10 UNL     1     152.806 163.828 164.775  0.00  0.00    +0.000 A 
ATOM      5  C11 UNL     1     152.564 165.113 164.338  0.00  0.00    +0.000 A 
ATOM      6  C12 UNL     1     151.465 165.813 164.794  0.00  0.00    +0.000 A 
ENDROOT
BRANCH   3   7
ATOM      7  C13 UNL     1     152.306 161.812 166.095  0.00  0.00    +0.000 C 
ATOM      8  C14 UNL     1     153.128 161.022 165.436  0.00  0.00    +0.000 C 
BRANCH   8   9
ATOM      9  C15 UNL     1     153.379 159.660 165.959  0.00  0.00    +0.000 C 
ATOM     10  C16 UNL     1     154.573 159.119 165.958  0.00  0.00    +0.000 C 
BRANCH  10  11
ATOM     11  C17 UNL     1     154.856 157.781 166.464  0.00  0.00    +0.000 C 
ATOM     12  O2  UNL     1     155.492 156.964 165.764  0.00  0.00    +0.000 OA
BRANCH  11  13
ATOM     13  O3  UNL     1     154.429 157.406 167.708  0.00  0.00    +0.000 OA
ATOM     14  H12 UNL     1     154.670 157.853 168.575  0.00  0.00    +0.000 HD
ENDBRANCH  11  13
ENDBRANCH  10  11
ENDBRANCH   8   9
ENDBRANCH   3   7
BRANCH   1  15
ATOM     15  O1  UNL     1     149.520 165.855 166.173  0.00  0.00    +0.000 OA
BRANCH  15  21
ATOM     16 CL1  UNL     1     145.698 164.028 169.163  0.00  0.00    +0.000 Cl
ATOM     17  C1  UNL     1     147.268 164.766 168.893  0.00  0.00    +0.000 A 
ATOM     18  C2  UNL     1     148.011 165.098 170.022  0.00  0.00    +0.000 A 
ATOM     19  C3  UNL     1     149.233 165.672 169.849  0.00  0.00    +0.000 A 
ATOM     20  C4  UNL     1     149.721 165.916 168.575  0.00  0.00    +0.000 A 
ATOM     21  C5  UNL     1     149.000 165.595 167.433  0.00  0.00    +0.000 A 
ATOM     22  C6  UNL     1     147.767 165.016 167.635  0.00  0.00    +0.000 A 
ATOM     23 CL2  UNL     1     150.191 166.099 171.268  0.00  0.00    +0.000 Cl
ENDBRANCH  15  21
ENDBRANCH   1  15
TORSDOF 6
ENDMDL
MODEL 4
REMARK VINA RESULT:      -5.7      1.502      2.252
REMARK  Name = ./3D_structures\o8_MMV1633963_3D.pdb
REMARK  6 active torsions:
REMARK  status: ('A' for Active; 'I' for Inactive)
REMARK    1  A    between atoms: C5_6  and  O1_8
REMARK    2  A    between atoms: O1_8  and  C7_9
REMARK    3  A    between atoms: C9_11  and  C13_15
REMARK    4  A    between atoms: C14_16  and  C15_17
REMARK    5  A    between atoms: C16_18  and  C17_19
REMARK    6  A    between atoms: C17_19  and  O3_21
REMARK                            x       y       z     vdW  Elec       q    Type
REMARK                         _______ _______ _______ _____ _____    ______ ____
ROOT
ATOM      1  C7  UNL     1     150.663 164.934 165.801  0.00  0.00    +0.000 A 
ATOM      2  C8  UNL     1     150.969 163.673 166.309  0.00  0.00    +0.000 A 
ATOM      3  C9  UNL     1     152.030 162.956 165.808  0.00  0.00    +0.000 A 
ATOM      4  C10 UNL     1     152.758 163.559 164.785  0.00  0.00    +0.000 A 
ATOM      5  C11 UNL     1     152.454 164.806 164.284  0.00  0.00    +0.000 A 
ATOM      6  C12 UNL     1     151.389 165.524 164.790  0.00  0.00    +0.000 A 
ENDROOT
BRANCH   3   7
ATOM      7  C13 UNL     1     152.416 161.635 166.281  0.00  0.00    +0.000 C 
ATOM      8  C14 UNL     1     153.486 160.990 165.865  0.00  0.00    +0.000 C 
BRANCH   8   9
ATOM      9  C15 UNL     1     153.772 159.649 166.424  0.00  0.00    +0.000 C 
ATOM     10  C16 UNL     1     154.653 158.841 165.888  0.00  0.00    +0.000 C 
BRANCH  10  11
ATOM     11  C17 UNL     1     154.959 157.515 166.411  0.00  0.00    +0.000 C 
ATOM     12  O2  UNL     1     154.638 157.208 167.580  0.00  0.00    +0.000 OA
BRANCH  11  13
ATOM     13  O3  UNL     1     155.598 156.591 165.630  0.00  0.00    +0.000 OA
ATOM     14  H12 UNL     1     155.224 156.154 164.806  0.00  0.00    +0.000 HD
ENDBRANCH  11  13
ENDBRANCH  10  11
ENDBRANCH   8   9
ENDBRANCH   3   7
BRANCH   1  15
ATOM     15  O1  UNL     1     149.575 165.641 166.334  0.00  0.00    +0.000 OA
BRANCH  15  21
ATOM     16 CL1  UNL     1     150.956 167.164 171.094  0.00  0.00    +0.000 Cl
ATOM     17  C1  UNL     1     149.912 166.343 169.946  0.00  0.00    +0.000 A 
ATOM     18  C2  UNL     1     148.791 165.700 170.463  0.00  0.00    +0.000 A 
ATOM     19  C3  UNL     1     147.959 165.053 169.600  0.00  0.00    +0.000 A 
ATOM     20  C4  UNL     1     148.227 165.041 168.241  0.00  0.00    +0.000 A 
ATOM     21  C5  UNL     1     149.338 165.675 167.701  0.00  0.00    +0.000 A 
ATOM     22  C6  UNL     1     150.163 166.321 168.594  0.00  0.00    +0.000 A 
ATOM     23 CL2  UNL     1     146.532 164.231 170.236  0.00  0.00    +0.000 Cl
ENDBRANCH  15  21
ENDBRANCH   1  15
TORSDOF 6
ENDMDL
MODEL 5
REMARK VINA RESULT:      -5.6      4.814      9.460
REMARK  Name = ./3D_structures\o8_MMV1633963_3D.pdb
REMARK  6 active torsions:
REMARK  status: ('A' for Active; 'I' for Inactive)
REMARK    1  A    between atoms: C5_6  and  O1_8
REMARK    2  A    between atoms: O1_8  and  C7_9
REMARK    3  A    between atoms: C9_11  and  C13_15
REMARK    4  A    between atoms: C14_16  and  C15_17
REMARK    5  A    between atoms: C16_18  and  C17_19
REMARK    6  A    between atoms: C17_19  and  O3_21
REMARK                            x       y       z     vdW  Elec       q    Type
REMARK                         _______ _______ _______ _____ _____    ______ ____
ROOT
ATOM      1  C7  UNL     1     153.699 159.039 167.535  0.00  0.00    +0.000 A 
ATOM      2  C8  UNL     1     152.774 159.749 168.297  0.00  0.00    +0.000 A 
ATOM      3  C9  UNL     1     152.069 160.794 167.747  0.00  0.00    +0.000 A 
ATOM      4  C10 UNL     1     152.336 161.086 166.411  0.00  0.00    +0.000 A 
ATOM      5  C11 UNL     1     153.250 160.382 165.658  0.00  0.00    +0.000 A 
ATOM      6  C12 UNL     1     153.956 159.334 166.214  0.00  0.00    +0.000 A 
ENDROOT
BRANCH   3   7
ATOM      7  C13 UNL     1     151.087 161.586 168.473  0.00  0.00    +0.000 C 
ATOM      8  C14 UNL     1     150.982 162.894 168.373  0.00  0.00    +0.000 C 
BRANCH   8   9
ATOM      9  C15 UNL     1     149.939 163.587 169.164  0.00  0.00    +0.000 C 
ATOM     10  C16 UNL     1     148.695 163.178 169.192  0.00  0.00    +0.000 C 
BRANCH  10  11
ATOM     11  C17 UNL     1     147.643 163.836 169.959  0.00  0.00    +0.000 C 
ATOM     12  O2  UNL     1     147.843 164.962 170.466  0.00  0.00    +0.000 OA
BRANCH  11  13
ATOM     13  O3  UNL     1     146.429 163.231 170.133  0.00  0.00    +0.000 OA
ATOM     14  H12 UNL     1     146.223 162.498 170.789  0.00  0.00    +0.000 HD
ENDBRANCH  11  13
ENDBRANCH  10  11
ENDBRANCH   8   9
ENDBRANCH   3   7
BRANCH   1  15
ATOM     15  O1  UNL     1     154.402 157.978 168.125  0.00  0.00    +0.000 OA
BRANCH  15  21
ATOM     16 CL1  UNL     1     159.527 158.330 168.825  0.00  0.00    +0.000 Cl
ATOM     17  C1  UNL     1     157.858 158.389 169.366  0.00  0.00    +0.000 A 
ATOM     18  C2  UNL     1     157.641 158.685 170.708  0.00  0.00    +0.000 A 
ATOM     19  C3  UNL     1     156.358 158.739 171.162  0.00  0.00    +0.000 A 
ATOM     20  C4  UNL     1     155.298 158.505 170.301  0.00  0.00    +0.000 A 
ATOM     21  C5  UNL     1     155.488 158.208 168.958  0.00  0.00    +0.000 A 
ATOM     22  C6  UNL     1     156.794 158.159 168.525  0.00  0.00    +0.000 A 
ATOM     23 CL2  UNL     1     156.062 159.113 172.861  0.00  0.00    +0.000 Cl
ENDBRANCH  15  21
ENDBRANCH   1  15
TORSDOF 6
ENDMDL
MODEL 6
REMARK VINA RESULT:      -5.5      4.779      9.481
REMARK  Name = ./3D_structures\o8_MMV1633963_3D.pdb
REMARK  6 active torsions:
REMARK  status: ('A' for Active; 'I' for Inactive)
REMARK    1  A    between atoms: C5_6  and  O1_8
REMARK    2  A    between atoms: O1_8  and  C7_9
REMARK    3  A    between atoms: C9_11  and  C13_15
REMARK    4  A    between atoms: C14_16  and  C15_17
REMARK    5  A    between atoms: C16_18  and  C17_19
REMARK    6  A    between atoms: C17_19  and  O3_21
REMARK                            x       y       z     vdW  Elec       q    Type
REMARK                         _______ _______ _______ _____ _____    ______ ____
ROOT
ATOM      1  C7  UNL     1     153.652 159.015 167.640  0.00  0.00    +0.000 A 
ATOM      2  C8  UNL     1     152.708 159.814 168.278  0.00  0.00    +0.000 A 
ATOM      3  C9  UNL     1     152.072 160.826 167.597  0.00  0.00    +0.000 A 
ATOM      4  C10 UNL     1     152.428 160.992 166.261  0.00  0.00    +0.000 A 
ATOM      5  C11 UNL     1     153.362 160.199 165.630  0.00  0.00    +0.000 A 
ATOM      6  C12 UNL     1     153.998 159.185 166.317  0.00  0.00    +0.000 A 
ENDROOT
BRANCH   3   7
ATOM      7  C13 UNL     1     151.076 161.706 168.189  0.00  0.00    +0.000 C 
ATOM      8  C14 UNL     1     149.777 161.557 168.029  0.00  0.00    +0.000 C 
BRANCH   8   9
ATOM      9  C15 UNL     1     148.863 162.520 168.685  0.00  0.00    +0.000 C 
ATOM     10  C16 UNL     1     149.300 163.595 169.294  0.00  0.00    +0.000 C 
BRANCH  10  11
ATOM     11  C17 UNL     1     148.429 164.563 169.951  0.00  0.00    +0.000 C 
ATOM     12  O2  UNL     1     148.839 165.215 170.935  0.00  0.00    +0.000 OA
BRANCH  11  13
ATOM     13  O3  UNL     1     147.155 164.769 169.497  0.00  0.00    +0.000 OA
ATOM     14  H12 UNL     1     146.389 164.123 169.572  0.00  0.00    +0.000 HD
ENDBRANCH  11  13
ENDBRANCH  10  11
ENDBRANCH   8   9
ENDBRANCH   3   7
BRANCH   1  15
ATOM     15  O1  UNL     1     154.283 157.990 168.362  0.00  0.00    +0.000 OA
BRANCH  15  21
ATOM     16 CL1  UNL     1     155.939 159.316 173.093  0.00  0.00    +0.000 Cl
ATOM     17  C1  UNL     1     156.174 158.875 171.410  0.00  0.00    +0.000 A 
ATOM     18  C2  UNL     1     157.488 158.799 170.957  0.00  0.00    +0.000 A 
ATOM     19  C3  UNL     1     157.708 158.459 169.657  0.00  0.00    +0.000 A 
ATOM     20  C4  UNL     1     156.643 158.194 168.811  0.00  0.00    +0.000 A 
ATOM     21  C5  UNL     1     155.324 158.262 169.238  0.00  0.00    +0.000 A 
ATOM     22  C6  UNL     1     155.129 158.608 170.556  0.00  0.00    +0.000 A 
ATOM     23 CL2  UNL     1     159.366 158.359 169.063  0.00  0.00    +0.000 Cl
ENDBRANCH  15  21
ENDBRANCH   1  15
TORSDOF 6
ENDMDL
MODEL 7
REMARK VINA RESULT:      -5.5      4.352      9.478
REMARK  Name = ./3D_structures\o8_MMV1633963_3D.pdb
REMARK  6 active torsions:
REMARK  status: ('A' for Active; 'I' for Inactive)
REMARK    1  A    between atoms: C5_6  and  O1_8
REMARK    2  A    between atoms: O1_8  and  C7_9
REMARK    3  A    between atoms: C9_11  and  C13_15
REMARK    4  A    between atoms: C14_16  and  C15_17
REMARK    5  A    between atoms: C16_18  and  C17_19
REMARK    6  A    between atoms: C17_19  and  O3_21
REMARK                            x       y       z     vdW  Elec       q    Type
REMARK                         _______ _______ _______ _____ _____    ______ ____
ROOT
ATOM      1  C7  UNL     1     153.977 160.028 165.615  0.00  0.00    +0.000 A 
ATOM      2  C8  UNL     1     152.830 160.811 165.717  0.00  0.00    +0.000 A 
ATOM      3  C9  UNL     1     152.865 162.148 165.398  0.00  0.00    +0.000 A 
ATOM      4  C10 UNL     1     154.094 162.653 164.978  0.00  0.00    +0.000 A 
ATOM      5  C11 UNL     1     155.228 161.876 164.876  0.00  0.00    +0.000 A 
ATOM      6  C12 UNL     1     155.189 160.534 165.196  0.00  0.00    +0.000 A 
ENDROOT
BRANCH   3   7
ATOM      7  C13 UNL     1     151.715 163.035 165.478  0.00  0.00    +0.000 C 
ATOM      8  C14 UNL     1     151.802 164.348 165.535  0.00  0.00    +0.000 C 
BRANCH   8   9
ATOM      9  C15 UNL     1     150.555 165.142 165.613  0.00  0.00    +0.000 C 
ATOM     10  C16 UNL     1     149.634 164.911 166.517  0.00  0.00    +0.000 C 
BRANCH  10  11
ATOM     11  C17 UNL     1     148.395 165.673 166.622  0.00  0.00    +0.000 C 
ATOM     12  O2  UNL     1     147.557 165.395 167.507  0.00  0.00    +0.000 OA
BRANCH  11  13
ATOM     13  O3  UNL     1     148.136 166.699 165.755  0.00  0.00    +0.000 OA
ATOM     14  H12 UNL     1     147.608 167.528 165.963  0.00  0.00    +0.000 HD
ENDBRANCH  11  13
ENDBRANCH  10  11
ENDBRANCH   8   9
ENDBRANCH   3   7
BRANCH   1  15
ATOM     15  O1  UNL     1     153.909 158.667 165.947  0.00  0.00    +0.000 OA
BRANCH  15  21
ATOM     16 CL1  UNL     1     156.176 157.542 170.472  0.00  0.00    +0.000 Cl
ATOM     17  C1  UNL     1     156.040 157.480 168.723  0.00  0.00    +0.000 A 
ATOM     18  C2  UNL     1     157.017 156.763 168.040  0.00  0.00    +0.000 A 
ATOM     19  C3  UNL     1     156.942 156.695 166.682  0.00  0.00    +0.000 A 
ATOM     20  C4  UNL     1     155.912 157.326 166.003  0.00  0.00    +0.000 A 
ATOM     21  C5  UNL     1     154.925 158.047 166.661  0.00  0.00    +0.000 A 
ATOM     22  C6  UNL     1     155.024 158.101 168.033  0.00  0.00    +0.000 A 
ATOM     23 CL2  UNL     1     158.173 155.791 165.797  0.00  0.00    +0.000 Cl
ENDBRANCH  15  21
ENDBRANCH   1  15
TORSDOF 6
ENDMDL
MODEL 8
REMARK VINA RESULT:      -5.5     10.267     13.469
REMARK  Name = ./3D_structures\o8_MMV1633963_3D.pdb
REMARK  6 active torsions:
REMARK  status: ('A' for Active; 'I' for Inactive)
REMARK    1  A    between atoms: C5_6  and  O1_8
REMARK    2  A    between atoms: O1_8  and  C7_9
REMARK    3  A    between atoms: C9_11  and  C13_15
REMARK    4  A    between atoms: C14_16  and  C15_17
REMARK    5  A    between atoms: C16_18  and  C17_19
REMARK    6  A    between atoms: C17_19  and  O3_21
REMARK                            x       y       z     vdW  Elec       q    Type
REMARK                         _______ _______ _______ _____ _____    ______ ____
ROOT
ATOM      1  C7  UNL     1     162.099 162.169 168.992  0.00  0.00    +0.000 A 
ATOM      2  C8  UNL     1     161.312 161.120 168.523  0.00  0.00    +0.000 A 
ATOM      3  C9  UNL     1     159.995 161.009 168.905  0.00  0.00    +0.000 A 
ATOM      4  C10 UNL     1     159.516 161.990 169.770  0.00  0.00    +0.000 A 
ATOM      5  C11 UNL     1     160.297 163.028 170.232  0.00  0.00    +0.000 A 
ATOM      6  C12 UNL     1     161.617 163.136 169.846  0.00  0.00    +0.000 A 
ENDROOT
BRANCH   3   7
ATOM      7  C13 UNL     1     159.105 159.946 168.462  0.00  0.00    +0.000 C 
ATOM      8  C14 UNL     1     158.788 158.902 169.198  0.00  0.00    +0.000 C 
BRANCH   8   9
ATOM      9  C15 UNL     1     157.870 157.886 168.633  0.00  0.00    +0.000 C 
ATOM     10  C16 UNL     1     156.775 158.212 167.990  0.00  0.00    +0.000 C 
BRANCH  10  11
ATOM     11  C17 UNL     1     155.849 157.239 167.423  0.00  0.00    +0.000 C 
ATOM     12  O2  UNL     1     154.724 157.064 167.938  0.00  0.00    +0.000 OA
BRANCH  11  13
ATOM     13  O3  UNL     1     156.201 156.507 166.321  0.00  0.00    +0.000 OA
ATOM     14  H12 UNL     1     155.605 156.288 165.543  0.00  0.00    +0.000 HD
ENDBRANCH  11  13
ENDBRANCH  10  11
ENDBRANCH   8   9
ENDBRANCH   3   7
BRANCH   1  15
ATOM     15  O1  UNL     1     163.439 162.255 168.583  0.00  0.00    +0.000 OA
BRANCH  15  21
ATOM     16 CL1  UNL     1     166.631 158.329 169.714  0.00  0.00    +0.000 Cl
ATOM     17  C1  UNL     1     165.981 159.944 169.942  0.00  0.00    +0.000 A 
ATOM     18  C2  UNL     1     166.543 160.711 170.958  0.00  0.00    +0.000 A 
ATOM     19  C3  UNL     1     166.063 161.969 171.163  0.00  0.00    +0.000 A 
ATOM     20  C4  UNL     1     165.040 162.467 170.373  0.00  0.00    +0.000 A 
ATOM     21  C5  UNL     1     164.463 161.723 169.353  0.00  0.00    +0.000 A 
ATOM     22  C6  UNL     1     164.965 160.455 169.167  0.00  0.00    +0.000 A 
ATOM     23 CL2  UNL     1     166.763 162.957 172.446  0.00  0.00    +0.000 Cl
ENDBRANCH  15  21
ENDBRANCH   1  15
TORSDOF 6
ENDMDL
MODEL 9
REMARK VINA RESULT:      -5.4      6.246     10.370
REMARK  Name = ./3D_structures\o8_MMV1633963_3D.pdb
REMARK  6 active torsions:
REMARK  status: ('A' for Active; 'I' for Inactive)
REMARK    1  A    between atoms: C5_6  and  O1_8
REMARK    2  A    between atoms: O1_8  and  C7_9
REMARK    3  A    between atoms: C9_11  and  C13_15
REMARK    4  A    between atoms: C14_16  and  C15_17
REMARK    5  A    between atoms: C16_18  and  C17_19
REMARK    6  A    between atoms: C17_19  and  O3_21
REMARK                            x       y       z     vdW  Elec       q    Type
REMARK                         _______ _______ _______ _____ _____    ______ ____
ROOT
ATOM      1  C7  UNL     1     155.959 158.402 171.013  0.00  0.00    +0.000 A 
ATOM      2  C8  UNL     1     154.722 158.667 170.431  0.00  0.00    +0.000 A 
ATOM      3  C9  UNL     1     153.899 159.639 170.949  0.00  0.00    +0.000 A 
ATOM      4  C10 UNL     1     154.374 160.323 172.066  0.00  0.00    +0.000 A 
ATOM      5  C11 UNL     1     155.599 160.060 172.640  0.00  0.00    +0.000 A 
ATOM      6  C12 UNL     1     156.423 159.084 172.117  0.00  0.00    +0.000 A 
ENDROOT
BRANCH   3   7
ATOM      7  C13 UNL     1     152.593 159.977 170.403  0.00  0.00    +0.000 C 
ATOM      8  C14 UNL     1     151.635 159.099 170.194  0.00  0.00    +0.000 C 
BRANCH   8   9
ATOM      9  C15 UNL     1     150.348 159.568 169.632  0.00  0.00    +0.000 C 
ATOM     10  C16 UNL     1     150.281 160.525 168.739  0.00  0.00    +0.000 C 
BRANCH  10  11
ATOM     11  C17 UNL     1     149.032 161.012 168.166  0.00  0.00    +0.000 C 
ATOM     12  O2  UNL     1     148.261 161.723 168.846  0.00  0.00    +0.000 OA
BRANCH  11  13
ATOM     13  O3  UNL     1     148.690 160.696 166.879  0.00  0.00    +0.000 OA
ATOM     14  H12 UNL     1     149.018 159.902 166.359  0.00  0.00    +0.000 HD
ENDBRANCH  11  13
ENDBRANCH  10  11
ENDBRANCH   8   9
ENDBRANCH   3   7
BRANCH   1  15
ATOM     15  O1  UNL     1     156.776 157.404 170.460  0.00  0.00    +0.000 OA
BRANCH  15  21
ATOM     16 CL1  UNL     1     156.960 156.347 165.388  0.00  0.00    +0.000 Cl
ATOM     17  C1  UNL     1     157.529 157.127 166.854  0.00  0.00    +0.000 A 
ATOM     18  C2  UNL     1     158.645 157.951 166.736  0.00  0.00    +0.000 A 
ATOM     19  C3  UNL     1     159.114 158.572 167.853  0.00  0.00    +0.000 A 
ATOM     20  C4  UNL     1     158.489 158.385 169.076  0.00  0.00    +0.000 A 
ATOM     21  C5  UNL     1     157.375 157.569 169.220  0.00  0.00    +0.000 A 
ATOM     22  C6  UNL     1     156.921 156.952 168.076  0.00  0.00    +0.000 A 
ATOM     23 CL2  UNL     1     160.528 159.620 167.724  0.00  0.00    +0.000 Cl
ENDBRANCH  15  21
ENDBRANCH   1  15
TORSDOF 6
ENDMDL
