REMARK  Name = ./3D_structures\o10_MMV002505_3D.pdb
REMARK  4 active torsions:
REMARK  status: ('A' for Active; 'I' for Inactive)
REMARK    1  A    between atoms: C4_5  and  S2_6
REMARK    2  A    between atoms: S2_6  and  C5_7
REMARK    3  A    between atoms: C8_10  and  N1_11
REMARK    4  A    between atoms: N2_14  and  C11_15
REMARK                            x       y       z     vdW  Elec       q    Type
REMARK                         _______ _______ _______ _____ _____    ______ ____
ROOT
ATOM      1  S1  UNL     1       3.083  -1.388  -1.211  0.00  0.00    +0.000 S 
ATOM      2  C1  UNL     1       2.552   0.221  -0.630  0.00  0.00    +0.000 A 
ATOM      3  C2  UNL     1       1.232   0.566  -0.289  0.00  0.00    +0.000 A 
ATOM      4  C3  UNL     1       1.034   1.855   0.123  0.00  0.00    +0.000 A 
ATOM      5  C4  UNL     1       2.069   2.782   0.205  0.00  0.00    +0.000 A 
ATOM      6  C6  UNL     1       3.325   2.397  -0.135  0.00  0.00    +0.000 A 
ATOM      7  C7  UNL     1       3.583   1.117  -0.556  0.00  0.00    +0.000 A 
ATOM      8  C8  UNL     1       0.072  -0.324  -0.332  0.00  0.00    +0.000 C 
ATOM      9  C14 UNL     1       0.161  -1.400   0.726  0.00  0.00    +0.000 C 
ATOM     10  C15 UNL     1       1.069  -2.503   0.417  0.00  0.00    +0.000 A 
ATOM     11  C16 UNL     1       2.229  -2.636  -0.313  0.00  0.00    +0.000 A 
ATOM     12  C17 UNL     1       2.903  -3.831  -0.439  0.00  0.00    +0.000 A 
ATOM     13  C18 UNL     1       2.423  -4.957   0.179  0.00  0.00    +0.000 A 
ATOM     14  C19 UNL     1       1.264  -4.860   0.918  0.00  0.00    +0.000 A 
ATOM     15  C20 UNL     1       0.600  -3.660   1.036  0.00  0.00    +0.000 A 
ENDROOT
BRANCH   8  16
ATOM     16  N1  UNL     1      -1.191   0.206  -0.546  0.00  0.00    +0.000 NA
ATOM     17  C9  UNL     1      -1.951   0.825   0.451  0.00  0.00    +0.000 C 
ATOM     18  C10 UNL     1      -3.313   0.169   0.671  0.00  0.00    +0.000 C 
ATOM     19  N2  UNL     1      -4.040   0.003  -0.555  0.00  0.00    +0.000 NA
ATOM     20  C11 UNL     1      -5.320   0.680  -0.547  0.00  0.00    +0.000 C 
ATOM     21  C12 UNL     1      -3.258   0.332  -1.726  0.00  0.00    +0.000 C 
ATOM     22  C13 UNL     1      -1.949  -0.410  -1.610  0.00  0.00    +0.000 C 
ENDBRANCH   8  16
BRANCH   5  23
ATOM     23  S2  UNL     1       1.699   4.459   0.762  0.00  0.00    +0.000 S 
ATOM     24  C5  UNL     1       3.240   5.412   0.759  0.00  0.00    +0.000 C 
ENDBRANCH   5  23
TORSDOF 2
