REMARK  Name = ./3D_structures\o12_MMV1581033_3D.pdb
REMARK  11 active torsions:
REMARK  status: ('A' for Active; 'I' for Inactive)
REMARK    1  A    between atoms: C1_2  and  O2_3
REMARK    2  A    between atoms: C1_2  and  C2_4
REMARK    3  A    between atoms: C2_4  and  N1_5
REMARK    4  A    between atoms: C2_4  and  C8_15
REMARK    5  A    between atoms: C3_6  and  C4_8
REMARK    6  A    between atoms: C4_8  and  C5_9
REMARK    7  A    between atoms: C5_9  and  C6_10
REMARK    8  A    between atoms: C6_10  and  N2_11
REMARK    9  A    between atoms: C6_10  and  C7_12
REMARK   10  A    between atoms: C7_12  and  O5_14
REMARK   11  A    between atoms: C8_15  and  C9_16
REMARK                            x       y       z     vdW  Elec       q    Type
REMARK                         _______ _______ _______ _____ _____    ______ ____
ROOT
ATOM      1  C2  UNL     1      -0.610   0.005  -0.551  0.00  0.00    +0.000 C 
ENDROOT
BRANCH   1   2
ATOM      2  N1  UNL     1       0.698   0.437   0.026  0.00  0.00    +0.000 N 
ATOM      3  C3  UNL     1       1.920  -0.145  -0.393  0.00  0.00    +0.000 C 
ATOM      4  O3  UNL     1       1.932  -1.044  -1.267  0.00  0.00    +0.000 OA
ATOM      5  H3  UNL     1       0.703   1.182   0.752  0.00  0.00    +0.000 HD
BRANCH   3   6
ATOM      6  C4  UNL     1       3.179   0.363   0.254  0.00  0.00    +0.000 C 
BRANCH   6   7
ATOM      7  C5  UNL     1       4.390  -0.329  -0.268  0.00  0.00    +0.000 C 
BRANCH   7   8
ATOM      8  C6  UNL     1       5.611   0.217   0.437  0.00  0.00    +0.000 C 
BRANCH   8   9
ATOM      9  N2  UNL     1       6.750  -0.510  -0.126  0.00  0.00    +0.000 NA
ATOM     10  H9  UNL     1       7.594   0.131  -0.026  0.00  0.00    +0.000 HD
ATOM     11  H10 UNL     1       6.619  -0.676  -1.138  0.00  0.00    +0.000 HD
ENDBRANCH   8   9
BRANCH   8  12
ATOM     12  C7  UNL     1       5.846   1.658   0.211  0.00  0.00    +0.000 C 
ATOM     13  O4  UNL     1       6.856   2.064  -0.441  0.00  0.00    +0.000 OA
BRANCH  12  14
ATOM     14  O5  UNL     1       5.012   2.662   0.678  0.00  0.00    +0.000 OA
ATOM     15  H11 UNL     1       5.467   3.525   0.988  0.00  0.00    +0.000 HD
ENDBRANCH  12  14
ENDBRANCH   8  12
ENDBRANCH   7   8
ENDBRANCH   6   7
ENDBRANCH   3   6
ENDBRANCH   1   2
BRANCH   1  17
ATOM     16  O1  UNL     1      -0.796   2.356  -1.082  0.00  0.00    +0.000 OA
ATOM     17  C1  UNL     1      -1.233   1.186  -1.154  0.00  0.00    +0.000 C 
BRANCH  17  18
ATOM     18  O2  UNL     1      -2.419   1.030  -1.886  0.00  0.00    +0.000 OA
ATOM     19  H1  UNL     1      -2.684   1.701  -2.595  0.00  0.00    +0.000 HD
ENDBRANCH  17  18
ENDBRANCH   1  17
BRANCH   1  20
ATOM     20  C8  UNL     1      -1.344  -0.610   0.608  0.00  0.00    +0.000 C 
BRANCH  20  21
ATOM     21  C9  UNL     1      -2.698  -1.066   0.379  0.00  0.00    +0.000 A 
ATOM     22  C10 UNL     1      -3.105  -2.357   0.022  0.00  0.00    +0.000 A 
ATOM     23  N3  UNL     1      -4.420  -2.390  -0.133  0.00  0.00    +0.000 N 
ATOM     24  C11 UNL     1      -4.921  -1.160   0.108  0.00  0.00    +0.000 A 
ATOM     25  C12 UNL     1      -3.853  -0.319   0.431  0.00  0.00    +0.000 A 
ATOM     26  C13 UNL     1      -4.106   1.009   0.740  0.00  0.00    +0.000 A 
ATOM     27  C14 UNL     1      -5.394   1.465   0.721  0.00  0.00    +0.000 A 
ATOM     28  C15 UNL     1      -6.466   0.662   0.407  0.00  0.00    +0.000 A 
ATOM     29  C16 UNL     1      -6.204  -0.654   0.102  0.00  0.00    +0.000 A 
ATOM     30  H15 UNL     1      -4.987  -3.230  -0.399  0.00  0.00    +0.000 HD
ENDBRANCH  20  21
ENDBRANCH   1  20
TORSDOF 11
