REMARK  Name = ./3D_structures\o13_MMV1557856_3D.pdb
REMARK  23 active torsions:
REMARK  status: ('A' for Active; 'I' for Inactive)
REMARK    1  A    between atoms: C5_6  and  C28_38
REMARK    2  A    between atoms: C6_7  and  C7_9
REMARK    3  A    between atoms: C8_10  and  C15_19
REMARK    4  A    between atoms: C15_19  and  C16_20
REMARK    5  A    between atoms: C17_22  and  C18_24
REMARK    6  A    between atoms: C18_24  and  N4_25
REMARK    7  A    between atoms: C18_24  and  C23_32
REMARK    8  A    between atoms: C19_26  and  C20_28
REMARK    9  A    between atoms: C20_28  and  N5_29
REMARK   10  A    between atoms: C20_28  and  C22_31
REMARK   11  A    between atoms: N5_29  and  C21_30
REMARK   12  A    between atoms: C23_32  and  C24_33
REMARK   13  A    between atoms: C26_35  and  O3_37
REMARK   14  A    between atoms: C28_38  and  C29_39
REMARK   15  A    between atoms: C30_41  and  C31_43
REMARK   16  A    between atoms: C31_43  and  N7_44
REMARK   17  A    between atoms: C31_43  and  C36_51
REMARK   18  A    between atoms: C32_45  and  C33_47
REMARK   19  A    between atoms: C33_47  and  N8_48
REMARK   20  A    between atoms: C33_47  and  C35_50
REMARK   21  A    between atoms: N8_48  and  C34_49
REMARK   22  A    between atoms: C36_51  and  C37_52
REMARK   23  A    between atoms: C39_54  and  O6_56
REMARK                            x       y       z     vdW  Elec       q    Type
REMARK                         _______ _______ _______ _____ _____    ______ ____
ROOT
ATOM      1  F1  UNL     1       0.608  -1.725   6.610  0.00  0.00    +0.000 F 
ATOM      2  C1  UNL     1       0.059  -1.472   5.388  0.00  0.00    +0.000 A 
ATOM      3  C2  UNL     1       0.865  -1.301   4.283  0.00  0.00    +0.000 A 
ATOM      4  C3  UNL     1       0.300  -1.042   3.029  0.00  0.00    +0.000 A 
ATOM      5  C4  UNL     1      -1.053  -0.964   2.920  0.00  0.00    +0.000 A 
ATOM      6  C5  UNL     1      -1.284  -0.688   1.552  0.00  0.00    +0.000 A 
ATOM      7  C6  UNL     1      -0.096  -0.602   0.880  0.00  0.00    +0.000 A 
ATOM      8  N1  UNL     1       0.843  -0.828   1.822  0.00  0.00    +0.000 N 
ATOM      9  C41 UNL     1      -1.827  -1.137   4.026  0.00  0.00    +0.000 A 
ATOM     10  C42 UNL     1      -1.306  -1.393   5.280  0.00  0.00    +0.000 A 
ATOM     11  H2  UNL     1       1.856  -0.852   1.645  0.00  0.00    +0.000 HD
ENDROOT
BRANCH   7  12
ATOM     12  C7  UNL     1       0.110  -0.333  -0.536  0.00  0.00    +0.000 A 
ATOM     13  C8  UNL     1       1.295   0.029  -1.163  0.00  0.00    +0.000 A 
ATOM     14  C9  UNL     1       1.023   0.253  -2.514  0.00  0.00    +0.000 A 
ATOM     15  C10 UNL     1      -0.303   0.034  -2.716  0.00  0.00    +0.000 A 
ATOM     16  N2  UNL     1      -0.803  -0.312  -1.507  0.00  0.00    +0.000 N 
ATOM     17  C11 UNL     1      -0.868   0.167  -3.976  0.00  0.00    +0.000 A 
ATOM     18  C12 UNL     1      -0.116   0.523  -5.059  0.00  0.00    +0.000 A 
ATOM     19  F2  UNL     1      -0.648   0.644  -6.308  0.00  0.00    +0.000 F 
ATOM     20  C13 UNL     1       1.244   0.754  -4.870  0.00  0.00    +0.000 A 
ATOM     21  C14 UNL     1       1.777   0.614  -3.608  0.00  0.00    +0.000 A 
ATOM     22  H3  UNL     1      -1.827  -0.528  -1.466  0.00  0.00    +0.000 HD
BRANCH  13  23
ATOM     23  C15 UNL     1       2.660   0.148  -0.609  0.00  0.00    +0.000 C 
BRANCH  23  24
ATOM     24  C16 UNL     1       2.900   1.292   0.251  0.00  0.00    +0.000 C 
ATOM     25  N3  UNL     1       4.270   1.429   0.798  0.00  0.00    +0.000 N 
ATOM     26  C17 UNL     1       5.374   0.641   0.484  0.00  0.00    +0.000 C 
ATOM     27  O1  UNL     1       5.200  -0.296  -0.422  0.00  0.00    +0.000 OA
ATOM     28  C25 UNL     1       4.105   2.590   1.637  0.00  0.00    +0.000 C 
ATOM     29  C26 UNL     1       3.441   3.578   0.651  0.00  0.00    +0.000 C 
ATOM     30  C27 UNL     1       2.861   2.660  -0.452  0.00  0.00    +0.000 C 
BRANCH  29  31
ATOM     31  O3  UNL     1       4.428   4.361   0.108  0.00  0.00    +0.000 OA
ATOM     32  H30 UNL     1       4.107   5.236  -0.218  0.00  0.00    +0.000 HD
ENDBRANCH  29  31
BRANCH  26  33
ATOM     33  C18 UNL     1       6.738   0.658   0.982  0.00  0.00    +0.000 C 
BRANCH  33  34
ATOM     34  N4  UNL     1       7.615   0.091  -0.056  0.00  0.00    +0.000 N 
ATOM     35  C19 UNL     1       8.429  -1.041   0.177  0.00  0.00    +0.000 C 
ATOM     36  O2  UNL     1       8.499  -1.641   1.238  0.00  0.00    +0.000 OA
ATOM     37  H11 UNL     1       7.620   0.557  -0.996  0.00  0.00    +0.000 HD
BRANCH  35  38
ATOM     38  C20 UNL     1       9.249  -1.503  -0.989  0.00  0.00    +0.000 C 
ATOM     39  C22 UNL     1       8.254  -1.959  -2.055  0.00  0.00    +0.000 C 
BRANCH  38  40
ATOM     40  N5  UNL     1      10.108  -2.612  -0.641  0.00  0.00    +0.000 NA
ATOM     41  C21 UNL     1      11.401  -2.402  -1.313  0.00  0.00    +0.000 C 
ATOM     42  H13 UNL     1      10.263  -2.637   0.401  0.00  0.00    +0.000 HD
ENDBRANCH  38  40
ENDBRANCH  35  38
ENDBRANCH  33  34
BRANCH  33  43
ATOM     43  C23 UNL     1       7.343   1.908   1.480  0.00  0.00    +0.000 C 
ATOM     44  C24 UNL     1       7.422   3.042   0.498  0.00  0.00    +0.000 C 
ENDBRANCH  33  43
ENDBRANCH  26  33
ENDBRANCH  23  24
ENDBRANCH  13  23
ENDBRANCH   7  12
BRANCH   6  45
ATOM     45  C28 UNL     1      -2.719  -0.566   1.108  0.00  0.00    +0.000 C 
BRANCH  45  46
ATOM     46  C29 UNL     1      -3.347  -1.922   1.055  0.00  0.00    +0.000 C 
ATOM     47  N6  UNL     1      -4.731  -1.992   0.639  0.00  0.00    +0.000 N 
ATOM     48  C30 UNL     1      -5.617  -0.942   0.422  0.00  0.00    +0.000 C 
ATOM     49  O4  UNL     1      -5.068   0.246   0.530  0.00  0.00    +0.000 OA
ATOM     50  C38 UNL     1      -4.991  -3.406   0.471  0.00  0.00    +0.000 C 
ATOM     51  C39 UNL     1      -3.687  -4.068   0.109  0.00  0.00    +0.000 C 
ATOM     52  C40 UNL     1      -2.695  -2.901   0.106  0.00  0.00    +0.000 C 
BRANCH  51  53
ATOM     53  O6  UNL     1      -3.789  -4.630  -1.151  0.00  0.00    +0.000 OA
ATOM     54  H54 UNL     1      -4.434  -4.163  -1.722  0.00  0.00    +0.000 HD
ENDBRANCH  51  53
BRANCH  48  55
ATOM     55  C31 UNL     1      -7.021  -0.834   0.102  0.00  0.00    +0.000 C 
BRANCH  55  56
ATOM     56  N7  UNL     1      -7.378   0.176  -0.851  0.00  0.00    +0.000 N 
ATOM     57  C32 UNL     1      -8.210   1.255  -0.507  0.00  0.00    +0.000 C 
ATOM     58  O5  UNL     1      -8.648   1.322   0.675  0.00  0.00    +0.000 OA
ATOM     59  H35 UNL     1      -7.029   0.147  -1.841  0.00  0.00    +0.000 HD
BRANCH  57  60
ATOM     60  C33 UNL     1      -8.599   2.330  -1.491  0.00  0.00    +0.000 C 
ATOM     61  C35 UNL     1      -7.374   3.145  -1.795  0.00  0.00    +0.000 C 
BRANCH  60  62
ATOM     62  N8  UNL     1      -9.549   3.239  -0.842  0.00  0.00    +0.000 NA
ATOM     63  C34 UNL     1     -10.718   2.447  -0.528  0.00  0.00    +0.000 C 
ATOM     64  H37 UNL     1      -9.147   3.588   0.057  0.00  0.00    +0.000 HD
ENDBRANCH  60  62
ENDBRANCH  57  60
ENDBRANCH  55  56
BRANCH  55  65
ATOM     65  C36 UNL     1      -7.878  -2.037   0.003  0.00  0.00    +0.000 C 
ATOM     66  C37 UNL     1      -7.976  -2.835   1.275  0.00  0.00    +0.000 C 
ENDBRANCH  55  65
ENDBRANCH  48  55
ENDBRANCH  45  46
ENDBRANCH   6  45
TORSDOF 17
