REMARK  Name = ./3D_structures\o14_MMV1580796_3D.pdb
REMARK  4 active torsions:
REMARK  status: ('A' for Active; 'I' for Inactive)
REMARK    1  A    between atoms: N1_2  and  C1_4
REMARK    2  A    between atoms: C16_22  and  O4_23
REMARK    3  A    between atoms: C16_22  and  C19_28
REMARK    4  A    between atoms: C19_28  and  C20_29
REMARK                            x       y       z     vdW  Elec       q    Type
REMARK                         _______ _______ _______ _____ _____    ______ ____
ROOT
ATOM      1  C1  UNL     1       5.323  -0.094  -0.301  0.00  0.00    +0.000 A 
ATOM      2  C2  UNL     1       6.029   0.966   0.258  0.00  0.00    +0.000 A 
ATOM      3  C3  UNL     1       5.325   1.970   0.880  0.00  0.00    +0.000 A 
ATOM      4  C4  UNL     1       3.948   1.929   0.950  0.00  0.00    +0.000 A 
ATOM      5  C5  UNL     1       3.250   0.875   0.394  0.00  0.00    +0.000 A 
ATOM      6  N2  UNL     1       1.900   0.870   0.473  0.00  0.00    +0.000 NA
ATOM      7  C6  UNL     1       1.207  -0.137  -0.067  0.00  0.00    +0.000 A 
ATOM      8  C7  UNL     1       1.841  -1.173  -0.705  0.00  0.00    +0.000 A 
ATOM      9  C8  UNL     1       3.222  -1.178  -0.791  0.00  0.00    +0.000 A 
ATOM     10  C9  UNL     1       3.950  -0.156  -0.244  0.00  0.00    +0.000 A 
ATOM     11  C10 UNL     1       0.845  -2.130  -1.198  0.00  0.00    +0.000 C 
ATOM     12  N3  UNL     1      -0.430  -1.577  -0.798  0.00  0.00    +0.000 N 
ATOM     13  C11 UNL     1      -1.666  -2.060  -1.001  0.00  0.00    +0.000 A 
ATOM     14  O3  UNL     1      -1.817  -3.154  -1.624  0.00  0.00    +0.000 OA
ATOM     15  C12 UNL     1      -2.778  -1.356  -0.525  0.00  0.00    +0.000 A 
ATOM     16  C13 UNL     1      -2.609  -0.179   0.145  0.00  0.00    +0.000 A 
ATOM     17  C14 UNL     1      -1.332   0.293   0.339  0.00  0.00    +0.000 A 
ATOM     18  C15 UNL     1      -0.233  -0.425  -0.145  0.00  0.00    +0.000 A 
ATOM     19  C16 UNL     1      -3.768   0.560   0.645  0.00  0.00    +0.000 C 
ATOM     20  C17 UNL     1      -5.035   0.136   0.026  0.00  0.00    +0.000 C 
ATOM     21  O5  UNL     1      -6.030   0.906   0.129  0.00  0.00    +0.000 OA
ATOM     22  O6  UNL     1      -5.163  -1.046  -0.643  0.00  0.00    +0.000 OA
ATOM     23  C18 UNL     1      -4.100  -1.936  -0.778  0.00  0.00    +0.000 C 
ENDROOT
BRANCH   1  25
ATOM     24  O1  UNL     1       7.260  -0.716  -1.577  0.00  0.00    +0.000 OA
ATOM     25  N1  UNL     1       6.085  -1.100  -0.931  0.00  0.00    +0.000 N 
ATOM     26  O2  UNL     1       5.794  -2.292  -0.918  0.00  0.00    +0.000 OA
ENDBRANCH   1  25
BRANCH  19  27
ATOM     27  O4  UNL     1      -3.890   0.367   2.031  0.00  0.00    +0.000 OA
ATOM     28  H8  UNL     1      -4.840   0.242   2.281  0.00  0.00    +0.000 HD
ENDBRANCH  19  27
BRANCH  19  29
ATOM     29  C19 UNL     1      -3.637   2.066   0.409  0.00  0.00    +0.000 C 
ATOM     30  C20 UNL     1      -3.515   2.277  -1.085  0.00  0.00    +0.000 C 
ENDBRANCH  19  29
TORSDOF 3
