REMARK  Name = ./3D_structures\o15_MMV1580505_3D.pdb
REMARK  4 active torsions:
REMARK  status: ('A' for Active; 'I' for Inactive)
REMARK    1  A    between atoms: C1_2  and  C20_27
REMARK    2  A    between atoms: N2_6  and  C4_7
REMARK    3  A    between atoms: C7_10  and  N3_11
REMARK    4  A    between atoms: C8_12  and  C9_14
REMARK                            x       y       z     vdW  Elec       q    Type
REMARK                         _______ _______ _______ _____ _____    ______ ____
ROOT
ATOM      1  C4  UNL     1      -0.550  -0.053  -1.627  0.00  0.00    +0.000 A 
ATOM      2  C5  UNL     1      -0.110   0.700  -0.570  0.00  0.00    +0.000 A 
ATOM      3  C6  UNL     1       1.243   0.794  -0.227  0.00  0.00    +0.000 A 
ATOM      4  C7  UNL     1       2.181   0.123  -0.952  0.00  0.00    +0.000 A 
ATOM      5  C16 UNL     1       1.746  -0.650  -2.036  0.00  0.00    +0.000 A 
ATOM      6  C17 UNL     1       0.417  -0.722  -2.348  0.00  0.00    +0.000 A 
ENDROOT
BRANCH   1  12
ATOM      7  O1  UNL     1      -5.400  -2.557  -0.656  0.00  0.00    +0.000 OA
ATOM      8  C1  UNL     1      -5.236  -1.241  -0.591  0.00  0.00    +0.000 C 
ATOM      9  N1  UNL     1      -4.482  -0.694  -1.614  0.00  0.00    +0.000 N 
ATOM     10  C2  UNL     1      -4.187   0.671  -1.852  0.00  0.00    +0.000 C 
ATOM     11  C3  UNL     1      -2.771   0.887  -1.301  0.00  0.00    +0.000 C 
ATOM     12  N2  UNL     1      -1.956  -0.123  -1.964  0.00  0.00    +0.000 N 
ATOM     13  C18 UNL     1      -2.450  -1.118  -2.870  0.00  0.00    +0.000 C 
ATOM     14  C19 UNL     1      -3.842  -1.628  -2.581  0.00  0.00    +0.000 C 
BRANCH   8  15
ATOM     15  C20 UNL     1      -5.890  -0.666   0.550  0.00  0.00    +0.000 A 
ATOM     16  C21 UNL     1      -5.689   0.624   0.965  0.00  0.00    +0.000 A 
ATOM     17  C22 UNL     1      -6.424   1.092   2.057  0.00  0.00    +0.000 A 
ATOM     18  C23 UNL     1      -7.334   0.317   2.730  0.00  0.00    +0.000 A 
ATOM     19  C24 UNL     1      -7.546  -0.982   2.326  0.00  0.00    +0.000 A 
ATOM     20  C25 UNL     1      -6.823  -1.439   1.252  0.00  0.00    +0.000 A 
ENDBRANCH   8  15
ENDBRANCH   1  12
BRANCH   4  21
ATOM     21  N3  UNL     1       3.572   0.151  -0.652  0.00  0.00    +0.000 N 
ATOM     22  C8  UNL     1       4.107   0.527   0.578  0.00  0.00    +0.000 C 
ATOM     23  O2  UNL     1       3.336   0.867   1.521  0.00  0.00    +0.000 OA
ATOM     24  H7  UNL     1       4.268  -0.131  -1.414  0.00  0.00    +0.000 HD
BRANCH  22  25
ATOM     25  C9  UNL     1       5.565   0.548   0.840  0.00  0.00    +0.000 A 
ATOM     26  C10 UNL     1       6.005   1.072   2.033  0.00  0.00    +0.000 A 
ATOM     27  C11 UNL     1       7.347   1.116   2.335  0.00  0.00    +0.000 A 
ATOM     28  C12 UNL     1       8.271   0.634   1.443  0.00  0.00    +0.000 A 
ATOM     29  O3  UNL     1       9.517   0.821   2.037  0.00  0.00    +0.000 OA
ATOM     30  C13 UNL     1       9.298   1.022   3.416  0.00  0.00    +0.000 C 
ATOM     31  O4  UNL     1       8.007   1.600   3.477  0.00  0.00    +0.000 OA
ATOM     32  C14 UNL     1       7.835   0.109   0.248  0.00  0.00    +0.000 A 
ATOM     33  C15 UNL     1       6.467   0.069  -0.050  0.00  0.00    +0.000 A 
ENDBRANCH  22  25
ENDBRANCH   4  21
TORSDOF 4
