REMARK  Name = ./3D_structures\o16_MMV687798_3D.pdb
REMARK  5 active torsions:
REMARK  status: ('A' for Active; 'I' for Inactive)
REMARK    1  A    between atoms: C2_3  and  N1_4
REMARK    2  A    between atoms: N2_7  and  C5_8
REMARK    3  A    between atoms: C11_15  and  C15_20
REMARK    4  A    between atoms: C15_20  and  O3_22
REMARK    5  A    between atoms: C16_23  and  C18_26
REMARK                            x       y       z     vdW  Elec       q    Type
REMARK                         _______ _______ _______ _____ _____    ______ ____
ROOT
ATOM      1  F1  UNL     1      -1.467   2.628  -1.322  0.00  0.00    +0.000 F 
ATOM      2  C1  UNL     1      -0.418   1.833  -0.945  0.00  0.00    +0.000 A 
ATOM      3  C2  UNL     1      -0.740   0.669  -0.276  0.00  0.00    +0.000 A 
ATOM      4  C8  UNL     1       0.300  -0.132   0.105  0.00  0.00    +0.000 A 
ATOM      5  C9  UNL     1       1.639   0.180  -0.155  0.00  0.00    +0.000 A 
ATOM      6  N3  UNL     1       2.624  -0.640   0.239  0.00  0.00    +0.000 N 
ATOM      7  C10 UNL     1       3.934  -0.334  -0.014  0.00  0.00    +0.000 A 
ATOM      8  C11 UNL     1       4.224   0.828  -0.678  0.00  0.00    +0.000 A 
ATOM      9  C12 UNL     1       3.238   1.689  -1.095  0.00  0.00    +0.000 A 
ATOM     10  C13 UNL     1       1.934   1.358  -0.829  0.00  0.00    +0.000 A 
ATOM     11  C14 UNL     1       0.887   2.173  -1.217  0.00  0.00    +0.000 A 
ATOM     12  O1  UNL     1       3.496   2.747  -1.700  0.00  0.00    +0.000 OA
ATOM     13  C16 UNL     1       2.324  -1.882   0.921  0.00  0.00    +0.000 C 
ATOM     14  C17 UNL     1       1.055  -1.801   1.680  0.00  0.00    +0.000 C 
ATOM     15  O4  UNL     1       0.045  -1.323   0.788  0.00  0.00    +0.000 OA
ATOM     16  C18 UNL     1       3.499  -2.322   1.761  0.00  0.00    +0.000 C 
ENDROOT
BRANCH   3  17
ATOM     17  N1  UNL     1      -2.090   0.302   0.014  0.00  0.00    +0.000 N 
ATOM     18  C3  UNL     1      -2.682   0.738   1.263  0.00  0.00    +0.000 C 
ATOM     19  C4  UNL     1      -4.185   0.845   1.179  0.00  0.00    +0.000 C 
ATOM     20  N2  UNL     1      -4.811  -0.344   0.668  0.00  0.00    +0.000 NA
ATOM     21  C5  UNL     1      -5.995  -0.058  -0.114  0.00  0.00    +0.000 C 
ATOM     22  C6  UNL     1      -3.907  -1.239   0.003  0.00  0.00    +0.000 C 
ATOM     23  C7  UNL     1      -2.907  -0.487  -0.874  0.00  0.00    +0.000 C 
ENDBRANCH   3  17
BRANCH   8  24
ATOM     24  C15 UNL     1       5.641   1.141  -0.940  0.00  0.00    +0.000 C 
ATOM     25  O2  UNL     1       6.557   0.365  -0.567  0.00  0.00    +0.000 OA
BRANCH  24  26
ATOM     26  O3  UNL     1       5.952   2.309  -1.610  0.00  0.00    +0.000 OA
ATOM     27  H14 UNL     1       6.893   2.704  -1.580  0.00  0.00    +0.000 HD
ENDBRANCH  24  26
ENDBRANCH   8  24
TORSDOF 3
