REMARK  Name = ./3D_structures\o17_MMV003297_3D.pdb
REMARK  8 active torsions:
REMARK  status: ('A' for Active; 'I' for Inactive)
REMARK    1  A    between atoms: C1_1  and  C2_2
REMARK    2  A    between atoms: C3_3  and  C4_4
REMARK    3  A    between atoms: C4_4  and  O1_5
REMARK    4  A    between atoms: C18_20  and  C22_24
REMARK    5  A    between atoms: C20_22  and  C21_23
REMARK    6  A    between atoms: C25_27  and  N1_30
REMARK    7  A    between atoms: N1_30  and  C28_31
REMARK    8  A    between atoms: N1_30  and  C29_32
REMARK                            x       y       z     vdW  Elec       q    Type
REMARK                         _______ _______ _______ _____ _____    ______ ____
ROOT
ATOM      1  C4  UNL     1      -2.878  -2.543   0.124  0.00  0.00    +0.000 C 
ATOM      2  C5  UNL     1      -3.812  -2.319   1.293  0.00  0.00    +0.000 C 
ATOM      3  C6  UNL     1      -3.592  -0.862   1.728  0.00  0.00    +0.000 C 
ATOM      4  C7  UNL     1      -2.623  -0.340   0.737  0.00  0.00    +0.000 C 
ATOM      5  C8  UNL     1      -1.748   0.792   1.200  0.00  0.00    +0.000 C 
ATOM      6  C9  UNL     1      -2.641   1.998   1.373  0.00  0.00    +0.000 C 
ATOM      7  C10 UNL     1      -1.741   3.036   2.068  0.00  0.00    +0.000 C 
ATOM      8  C11 UNL     1      -0.711   3.340   0.998  0.00  0.00    +0.000 C 
ATOM      9  C12 UNL     1      -0.289   4.580   0.828  0.00  0.00    +0.000 C 
ATOM     10  C13 UNL     1       0.698   4.942  -0.183  0.00  0.00    +0.000 C 
ATOM     11  O2  UNL     1       1.454   5.914  -0.055  0.00  0.00    +0.000 OA
ATOM     12  C14 UNL     1       0.699   4.025  -1.380  0.00  0.00    +0.000 C 
ATOM     13  C15 UNL     1       0.919   2.652  -0.776  0.00  0.00    +0.000 C 
ATOM     14  C16 UNL     1      -0.177   2.269   0.152  0.00  0.00    +0.000 C 
ATOM     15  C17 UNL     1      -0.646   1.035   0.226  0.00  0.00    +0.000 C 
ATOM     16  C18 UNL     1      -0.087  -0.019  -0.617  0.00  0.00    +0.000 C 
ATOM     17  C19 UNL     1      -0.835  -1.321  -0.613  0.00  0.00    +0.000 C 
ATOM     18  C20 UNL     1      -1.749  -1.570   0.513  0.00  0.00    +0.000 C 
ATOM     19  C21 UNL     1      -1.146  -2.117   1.757  0.00  0.00    +0.000 C 
ENDROOT
BRANCH  16  20
ATOM     20  C22 UNL     1       1.323  -0.346  -0.373  0.00  0.00    +0.000 A 
ATOM     21  C23 UNL     1       2.122  -0.650  -1.456  0.00  0.00    +0.000 A 
ATOM     22  C24 UNL     1       3.457  -0.961  -1.327  0.00  0.00    +0.000 A 
ATOM     23  C25 UNL     1       4.060  -0.981  -0.085  0.00  0.00    +0.000 A 
ATOM     24  C26 UNL     1       3.277  -0.681   1.009  0.00  0.00    +0.000 A 
ATOM     25  C27 UNL     1       1.942  -0.372   0.853  0.00  0.00    +0.000 A 
BRANCH  23  26
ATOM     26  N1  UNL     1       5.434  -1.299   0.082  0.00  0.00    +0.000 N 
ATOM     27  C28 UNL     1       6.378  -0.193   0.032  0.00  0.00    +0.000 C 
ATOM     28  C29 UNL     1       5.919  -2.654   0.295  0.00  0.00    +0.000 C 
ENDBRANCH  23  26
ENDBRANCH  16  20
BRANCH   1  31
ATOM     29  C1  UNL     1      -4.473  -1.335  -3.493  0.00  0.00    +0.000 C 
ATOM     30  C2  UNL     1      -3.920  -1.765  -2.196  0.00  0.00    +0.000 C 
ATOM     31  C3  UNL     1      -3.457  -2.119  -1.137  0.00  0.00    +0.000 C 
ENDBRANCH   1  31
BRANCH   1  32
ATOM     32  O1  UNL     1      -2.438  -3.850   0.129  0.00  0.00    +0.000 OA
ATOM     33  H4  UNL     1      -1.611  -3.989  -0.361  0.00  0.00    +0.000 HD
ENDBRANCH   1  32
TORSDOF 4
