REMARK  Name = ./3D_structures\o18_MMV1580487_3D.pdb
REMARK  7 active torsions:
REMARK  status: ('A' for Active; 'I' for Inactive)
REMARK    1  A    between atoms: C1_2  and  C20_25
REMARK    2  A    between atoms: N1_3  and  C2_4
REMARK    3  A    between atoms: C5_7  and  C6_8
REMARK    4  A    between atoms: C6_8  and  C17_22
REMARK    5  A    between atoms: N2_9  and  N3_10
REMARK    6  A    between atoms: C7_11  and  C8_13
REMARK    7  A    between atoms: C9_14  and  C10_15
REMARK                            x       y       z     vdW  Elec       q    Type
REMARK                         _______ _______ _______ _____ _____    ______ ____
ROOT
ATOM      1  C6  UNL     1       0.027  -0.296   0.561  0.00  0.00    +0.000 C 
ATOM      2  N2  UNL     1      -0.558   0.488   1.403  0.00  0.00    +0.000 NA
ATOM      3  C17 UNL     1      -0.809  -1.206  -0.245  0.00  0.00    +0.000 C 
ENDROOT
BRANCH   1   7
ATOM      4  C2  UNL     1       4.294  -0.191   0.180  0.00  0.00    +0.000 A 
ATOM      5  C3  UNL     1       3.491  -1.050  -0.581  0.00  0.00    +0.000 A 
ATOM      6  C4  UNL     1       2.120  -1.092  -0.468  0.00  0.00    +0.000 A 
ATOM      7  C5  UNL     1       1.488  -0.260   0.430  0.00  0.00    +0.000 A 
ATOM      8  C18 UNL     1       2.219   0.602   1.203  0.00  0.00    +0.000 A 
ATOM      9  C19 UNL     1       3.612   0.612   1.054  0.00  0.00    +0.000 A 
BRANCH   4  12
ATOM     10  O1  UNL     1       6.336   1.356   1.485  0.00  0.00    +0.000 OA
ATOM     11  C1  UNL     1       6.676   0.526   0.623  0.00  0.00    +0.000 C 
ATOM     12  N1  UNL     1       5.690  -0.234  -0.020  0.00  0.00    +0.000 N 
ATOM     13  H1  UNL     1       6.077  -0.921  -0.747  0.00  0.00    +0.000 HD
BRANCH  11  14
ATOM     14  C20 UNL     1       8.114   0.365   0.299  0.00  0.00    +0.000 A 
ATOM     15  C21 UNL     1       8.703  -0.470  -0.597  0.00  0.00    +0.000 A 
ATOM     16  C22 UNL     1      10.075  -0.255  -0.539  0.00  0.00    +0.000 A 
ATOM     17  C23 UNL     1      10.235   0.731   0.423  0.00  0.00    +0.000 A 
ATOM     18  O3  UNL     1       9.051   1.056   0.879  0.00  0.00    +0.000 OA
ENDBRANCH  11  14
ENDBRANCH   4  12
ENDBRANCH   1   7
BRANCH   2  19
ATOM     19  N3  UNL     1      -1.956   0.504   1.577  0.00  0.00    +0.000 N 
ATOM     20  C7  UNL     1      -2.754   1.152   0.566  0.00  0.00    +0.000 C 
ATOM     21  O2  UNL     1      -2.179   1.672  -0.420  0.00  0.00    +0.000 OA
ATOM     22  H4  UNL     1      -2.417   0.062   2.411  0.00  0.00    +0.000 HD
BRANCH  20  23
ATOM     23  C8  UNL     1      -4.221   1.204   0.687  0.00  0.00    +0.000 C 
ATOM     24  C9  UNL     1      -4.992   0.982  -0.622  0.00  0.00    +0.000 C 
ATOM     25  C16 UNL     1      -4.978   2.328   0.015  0.00  0.00    +0.000 C 
BRANCH  24  26
ATOM     26  C10 UNL     1      -6.177   0.125  -0.566  0.00  0.00    +0.000 A 
ATOM     27  C11 UNL     1      -7.032   0.130   0.525  0.00  0.00    +0.000 A 
ATOM     28  C12 UNL     1      -8.137  -0.662   0.590  0.00  0.00    +0.000 A 
ATOM     29  C13 UNL     1      -8.441  -1.509  -0.456  0.00  0.00    +0.000 A 
ATOM     30  C14 UNL     1      -7.608  -1.524  -1.536  0.00  0.00    +0.000 A 
ATOM     31  C15 UNL     1      -6.479  -0.718  -1.608  0.00  0.00    +0.000 A 
ENDBRANCH  24  26
ENDBRANCH  20  23
ENDBRANCH   2  19
TORSDOF 6
