REMARK  Name = ./3D_structures\o1_MMV617332_3D.pdb
REMARK  6 active torsions:
REMARK  status: ('A' for Active; 'I' for Inactive)
REMARK    1  A    between atoms: C1_2  and  C5_6
REMARK    2  A    between atoms: C5_6  and  N1_7
REMARK    3  A    between atoms: N1_7  and  C6_8
REMARK    4  A    between atoms: N2_12  and  C10_13
REMARK    5  A    between atoms: C13_16  and  O2_17
REMARK    6  A    between atoms: O2_17  and  C14_18
REMARK                            x       y       z     vdW  Elec       q    Type
REMARK                         _______ _______ _______ _____ _____    ______ ____
ROOT
ATOM      1  C6  UNL     1      -2.596  -1.594  -0.072  0.00  0.00    +0.000 A 
ATOM      2  C7  UNL     1      -1.896  -2.540   0.671  0.00  0.00    +0.000 A 
ATOM      3  C8  UNL     1      -0.531  -2.482   0.861  0.00  0.00    +0.000 A 
ATOM      4  C9  UNL     1       0.202  -1.458   0.305  0.00  0.00    +0.000 A 
ATOM      5  N2  UNL     1       1.498  -1.653   0.651  0.00  0.00    +0.000 N 
ATOM      6  C17 UNL     1       1.588  -2.768   1.404  0.00  0.00    +0.000 A 
ATOM      7  N3  UNL     1       0.352  -3.255   1.520  0.00  0.00    +0.000 NA
ATOM      8  C18 UNL     1      -0.465  -0.513  -0.432  0.00  0.00    +0.000 A 
ATOM      9  C19 UNL     1      -1.837  -0.580  -0.617  0.00  0.00    +0.000 A 
ENDROOT
BRANCH   5  10
ATOM     10  C10 UNL     1       2.559  -0.798   0.262  0.00  0.00    +0.000 A 
ATOM     11  C11 UNL     1       2.854   0.352   0.952  0.00  0.00    +0.000 A 
ATOM     12  C12 UNL     1       3.901   1.135   0.515  0.00  0.00    +0.000 A 
ATOM     13  C13 UNL     1       4.656   0.806  -0.584  0.00  0.00    +0.000 A 
ATOM     14  C15 UNL     1       4.366  -0.340  -1.276  0.00  0.00    +0.000 A 
ATOM     15  C16 UNL     1       3.323  -1.117  -0.838  0.00  0.00    +0.000 A 
BRANCH  13  16
ATOM     16  O2  UNL     1       5.693   1.655  -0.951  0.00  0.00    +0.000 OA
ATOM     17  C14 UNL     1       5.964   2.813  -0.228  0.00  0.00    +0.000 C 
ENDBRANCH  13  16
ENDBRANCH   5  10
BRANCH   1  18
ATOM     18  N1  UNL     1      -4.009  -1.692  -0.250  0.00  0.00    +0.000 N 
ATOM     19  H6  UNL     1      -4.487  -2.526   0.154  0.00  0.00    +0.000 HD
BRANCH  18  20
ATOM     20  C5  UNL     1      -4.757  -0.691  -0.952  0.00  0.00    +0.000 C 
BRANCH  20  22
ATOM     21  O1  UNL     1      -5.217   1.728  -0.842  0.00  0.00    +0.000 OA
ATOM     22  C1  UNL     1      -4.715   0.632  -0.329  0.00  0.00    +0.000 A 
ATOM     23  C2  UNL     1      -4.150   0.946   0.887  0.00  0.00    +0.000 A 
ATOM     24  C3  UNL     1      -4.356   2.298   1.047  0.00  0.00    +0.000 A 
ATOM     25  C4  UNL     1      -5.030   2.751  -0.061  0.00  0.00    +0.000 A 
ENDBRANCH  20  22
ENDBRANCH  18  20
ENDBRANCH   1  18
TORSDOF 5
