REMARK  Name = ./3D_structures\o20_MMV098836_3D.pdb
REMARK  6 active torsions:
REMARK  status: ('A' for Active; 'I' for Inactive)
REMARK    1  A    between atoms: C1_1  and  O1_2
REMARK    2  A    between atoms: O1_2  and  C2_3
REMARK    3  A    between atoms: C4_5  and  N1_6
REMARK    4  A    between atoms: N1_6  and  S1_7
REMARK    5  A    between atoms: S1_7  and  C5_10
REMARK    6  A    between atoms: C8_13  and  C9_14
REMARK                            x       y       z     vdW  Elec       q    Type
REMARK                         _______ _______ _______ _____ _____    ______ ____
ROOT
ATOM      1  C2  UNL     1      -2.543   0.438  -0.224  0.00  0.00    +0.000 A 
ATOM      2  C3  UNL     1      -1.539   0.737   0.669  0.00  0.00    +0.000 A 
ATOM      3  C4  UNL     1      -0.937  -0.221   1.463  0.00  0.00    +0.000 A 
ATOM      4  C12 UNL     1      -1.362  -1.551   1.359  0.00  0.00    +0.000 A 
ATOM      5  N2  UNL     1      -0.809  -2.521   2.109  0.00  0.00    +0.000 NA
ATOM      6  C13 UNL     1      -1.180  -3.812   2.048  0.00  0.00    +0.000 A 
ATOM      7  C14 UNL     1      -2.184  -4.153   1.165  0.00  0.00    +0.000 A 
ATOM      8  C15 UNL     1      -2.766  -3.165   0.383  0.00  0.00    +0.000 A 
ATOM      9  C16 UNL     1      -2.366  -1.847   0.466  0.00  0.00    +0.000 A 
ATOM     10  C17 UNL     1      -2.952  -0.874  -0.317  0.00  0.00    +0.000 A 
ENDROOT
BRANCH   1  12
ATOM     11  C1  UNL     1      -4.132   1.206  -1.920  0.00  0.00    +0.000 C 
ATOM     12  O1  UNL     1      -3.085   1.462  -0.976  0.00  0.00    +0.000 OA
ENDBRANCH   1  12
BRANCH   3  13
ATOM     13  N1  UNL     1       0.091   0.098   2.387  0.00  0.00    +0.000 N 
ATOM     14  H5  UNL     1       0.223  -0.578   3.194  0.00  0.00    +0.000 HD
BRANCH  13  15
ATOM     15  S1  UNL     1       1.094   1.477   2.266  0.00  0.00    +0.000 S 
ATOM     16  O2  UNL     1       2.085   1.477   3.406  0.00  0.00    +0.000 OA
ATOM     17  O3  UNL     1       0.323   2.767   2.273  0.00  0.00    +0.000 OA
BRANCH  15  18
ATOM     18  C5  UNL     1       2.024   1.429   0.794  0.00  0.00    +0.000 A 
ATOM     19  C6  UNL     1       3.241   0.736   0.787  0.00  0.00    +0.000 A 
ATOM     20  C7  UNL     1       4.050   0.642  -0.316  0.00  0.00    +0.000 A 
ATOM     21  C8  UNL     1       3.635   1.266  -1.472  0.00  0.00    +0.000 A 
ATOM     22  C9  UNL     1       4.468   1.197  -2.686  0.00  0.00    +0.000 C 
ATOM     23  C10 UNL     1       2.431   1.961  -1.492  0.00  0.00    +0.000 A 
ATOM     24  C11 UNL     1       1.632   2.042  -0.370  0.00  0.00    +0.000 A 
ENDBRANCH  15  18
ENDBRANCH  13  15
ENDBRANCH   3  13
TORSDOF 4
