REMARK  Name = ./3D_structures\o26_MMV1634385_3D.pdb
REMARK  4 active torsions:
REMARK  status: ('A' for Active; 'I' for Inactive)
REMARK    1  A    between atoms: C1_2  and  C2_5
REMARK    2  A    between atoms: N1_9  and  C6_10
REMARK    3  A    between atoms: C16_20  and  C17_22
REMARK    4  A    between atoms: C20_25  and  N3_26
REMARK                            x       y       z     vdW  Elec       q    Type
REMARK                         _______ _______ _______ _____ _____    ______ ____
ROOT
ATOM      1  C2  UNL     1       1.401   4.524  -0.540  0.00  0.00    +0.000 A 
ATOM      2  C3  UNL     1       2.245   3.505  -0.213  0.00  0.00    +0.000 A 
ATOM      3  C4  UNL     1       1.753   2.204  -0.117  0.00  0.00    +0.000 A 
ATOM      4  C5  UNL     1       0.433   1.871  -0.332  0.00  0.00    +0.000 A 
ATOM      5  N1  UNL     1       0.296   0.507  -0.183  0.00  0.00    +0.000 N 
ATOM      6  C16 UNL     1       1.473   0.040   0.087  0.00  0.00    +0.000 A 
ATOM      7  N2  UNL     1       2.398   1.098   0.139  0.00  0.00    +0.000 NA
ATOM      8  C23 UNL     1      -0.355   2.938  -0.663  0.00  0.00    +0.000 A 
ATOM      9  C24 UNL     1       0.075   4.247  -0.773  0.00  0.00    +0.000 A 
ENDROOT
BRANCH   5  10
ATOM     10  C6  UNL     1      -0.993  -0.101  -0.162  0.00  0.00    +0.000 C 
ATOM     11  C7  UNL     1      -1.840   0.658   0.844  0.00  0.00    +0.000 C 
ATOM     12  C8  UNL     1      -3.292   0.244   0.856  0.00  0.00    +0.000 C 
ATOM     13  C9  UNL     1      -3.279  -1.155   1.488  0.00  0.00    +0.000 C 
ATOM     14  C10 UNL     1      -2.379  -2.006   0.651  0.00  0.00    +0.000 C 
ATOM     15  C11 UNL     1      -0.978  -1.508   0.474  0.00  0.00    +0.000 C 
ATOM     16  C12 UNL     1      -3.049  -2.166  -0.685  0.00  0.00    +0.000 C 
ATOM     17  C13 UNL     1      -3.086  -0.798  -1.339  0.00  0.00    +0.000 C 
ATOM     18  C14 UNL     1      -1.642  -0.324  -1.470  0.00  0.00    +0.000 C 
ATOM     19  C15 UNL     1      -3.854   0.188  -0.518  0.00  0.00    +0.000 C 
ENDBRANCH   5  10
BRANCH   6  20
ATOM     20  C17 UNL     1       2.107  -1.241   0.270  0.00  0.00    +0.000 A 
ATOM     21  C18 UNL     1       2.384  -2.015  -0.820  0.00  0.00    +0.000 A 
ATOM     22  C19 UNL     1       3.195  -3.140  -0.704  0.00  0.00    +0.000 A 
ATOM     23  C20 UNL     1       3.728  -3.482   0.529  0.00  0.00    +0.000 A 
ATOM     24  C21 UNL     1       3.449  -2.721   1.628  0.00  0.00    +0.000 A 
ATOM     25  C22 UNL     1       2.629  -1.595   1.477  0.00  0.00    +0.000 A 
BRANCH  23  26
ATOM     26  N3  UNL     1       4.667  -4.575   0.587  0.00  0.00    +0.000 N 
ATOM     27  H19 UNL     1       4.480  -5.563   0.583  0.00  0.00    +0.000 HD
ATOM     28  H20 UNL     1       5.680  -4.231   0.641  0.00  0.00    +0.000 HD
ENDBRANCH  23  26
ENDBRANCH   6  20
BRANCH   1  30
ATOM     29  F1  UNL     1       1.027   6.750  -1.148  0.00  0.00    +0.000 F 
ATOM     30  C1  UNL     1       1.938   5.931  -0.556  0.00  0.00    +0.000 C 
ATOM     31  F2  UNL     1       2.055   6.219   0.834  0.00  0.00    +0.000 F 
ATOM     32  F3  UNL     1       3.154   5.958  -1.176  0.00  0.00    +0.000 F 
ENDBRANCH   1  30
TORSDOF 4
