REMARK  Name = ./3D_structures\o27_MMV1633968_3D.pdb
REMARK  4 active torsions:
REMARK  status: ('A' for Active; 'I' for Inactive)
REMARK    1  A    between atoms: C1_2  and  C2_5
REMARK    2  A    between atoms: C5_8  and  N1_9
REMARK    3  A    between atoms: C8_15  and  C11_20
REMARK    4  A    between atoms: C9_17  and  N6_19
REMARK                            x       y       z     vdW  Elec       q    Type
REMARK                         _______ _______ _______ _____ _____    ______ ____
ROOT
ATOM      1  N1  UNL     1       1.866   0.328   0.584  0.00  0.00    +0.000 N 
ATOM      2  C6  UNL     1       0.862  -0.099  -0.315  0.00  0.00    +0.000 A 
ATOM      3  N2  UNL     1       0.997  -0.613  -1.549  0.00  0.00    +0.000 NA
ATOM      4  N3  UNL     1      -0.192  -0.827  -2.082  0.00  0.00    +0.000 N 
ATOM      5  C7  UNL     1      -1.157  -0.457  -1.203  0.00  0.00    +0.000 A 
ATOM      6  N4  UNL     1      -2.506  -0.478  -1.259  0.00  0.00    +0.000 NA
ATOM      7  C8  UNL     1      -3.231  -0.050  -0.220  0.00  0.00    +0.000 C 
ATOM      8  N5  UNL     1      -2.580   0.394   0.861  0.00  0.00    +0.000 NA
ATOM      9  C9  UNL     1      -1.247   0.449   1.000  0.00  0.00    +0.000 C 
ATOM     10  C10 UNL     1      -0.489   0.003  -0.084  0.00  0.00    +0.000 A 
ATOM     11  H3  UNL     1       1.647   0.799   1.491  0.00  0.00    +0.000 HD
ATOM     12  H4  UNL     1      -0.345  -1.218  -3.026  0.00  0.00    +0.000 HD
ENDROOT
BRANCH   1  16
ATOM     13  C2  UNL     1       5.966  -0.106  -0.264  0.00  0.00    +0.000 A 
ATOM     14  C3  UNL     1       5.070  -1.126  -0.540  0.00  0.00    +0.000 A 
ATOM     15  C4  UNL     1       3.746  -0.993  -0.254  0.00  0.00    +0.000 A 
ATOM     16  C5  UNL     1       3.253   0.150   0.315  0.00  0.00    +0.000 A 
ATOM     17  C17 UNL     1       4.159   1.175   0.592  0.00  0.00    +0.000 A 
ATOM     18  C18 UNL     1       5.486   1.069   0.317  0.00  0.00    +0.000 A 
BRANCH  13  20
ATOM     19  F1  UNL     1       7.788   0.783  -1.480  0.00  0.00    +0.000 F 
ATOM     20  C1  UNL     1       7.431  -0.209  -0.559  0.00  0.00    +0.000 C 
ATOM     21  F2  UNL     1       7.709  -1.422  -1.158  0.00  0.00    +0.000 F 
ATOM     22  F3  UNL     1       8.192  -0.024   0.571  0.00  0.00    +0.000 F 
ENDBRANCH  13  20
ENDBRANCH   1  16
BRANCH   7  23
ATOM     23  C11 UNL     1      -4.683  -0.059  -0.213  0.00  0.00    +0.000 A 
ATOM     24  C12 UNL     1      -5.418  -0.530  -1.270  0.00  0.00    +0.000 A 
ATOM     25  C13 UNL     1      -6.817  -0.549  -1.297  0.00  0.00    +0.000 A 
ATOM     26  C14 UNL     1      -7.499  -0.065  -0.198  0.00  0.00    +0.000 A 
ATOM     27  C15 UNL     1      -6.785   0.408   0.866  0.00  0.00    +0.000 A 
ATOM     28  C16 UNL     1      -5.399   0.425   0.888  0.00  0.00    +0.000 A 
ENDBRANCH   7  23
BRANCH   9  29
ATOM     29  N6  UNL     1      -0.605   0.907   2.176  0.00  0.00    +0.000 N 
ATOM     30  H5  UNL     1      -0.233   0.239   2.856  0.00  0.00    +0.000 HD
ATOM     31  H6  UNL     1      -0.518   1.921   2.344  0.00  0.00    +0.000 HD
ENDBRANCH   9  29
TORSDOF 4
