REMARK  Name = ./3D_structures\o29_MMV1580502_3D.pdb
REMARK  4 active torsions:
REMARK  status: ('A' for Active; 'I' for Inactive)
REMARK    1  A    between atoms: N1_1  and  C11_15
REMARK    2  A    between atoms: C11_15  and  C12_16
REMARK    3  A    between atoms: C15_19  and  C16_20
REMARK    4  A    between atoms: C16_20  and  N5_21
REMARK                            x       y       z     vdW  Elec       q    Type
REMARK                         _______ _______ _______ _____ _____    ______ ____
ROOT
ATOM      1  C12 UNL     1      -1.260  -0.391   1.029  0.00  0.00    +0.000 A 
ATOM      2  C13 UNL     1      -0.029   0.002   1.567  0.00  0.00    +0.000 A 
ATOM      3  C14 UNL     1       1.152  -0.231   0.890  0.00  0.00    +0.000 A 
ATOM      4  C15 UNL     1       1.179  -0.856  -0.337  0.00  0.00    +0.000 A 
ATOM      5  C27 UNL     1      -0.042  -1.243  -0.867  0.00  0.00    +0.000 A 
ATOM      6  C28 UNL     1      -1.228  -1.017  -0.202  0.00  0.00    +0.000 A 
ENDROOT
BRANCH   1   7
ATOM      7  C11 UNL     1      -2.512  -0.134   1.784  0.00  0.00    +0.000 C 
BRANCH   7   8
ATOM      8  N1  UNL     1      -3.622  -0.122   0.824  0.00  0.00    +0.000 NA
ATOM      9  C1  UNL     1      -4.881   0.083   1.545  0.00  0.00    +0.000 C 
ATOM     10  C2  UNL     1      -5.465  -1.201   2.041  0.00  0.00    +0.000 C 
ATOM     11  N2  UNL     1      -6.819  -1.307   1.591  0.00  0.00    +0.000 NA
ATOM     12  C3  UNL     1      -7.779  -1.253   2.662  0.00  0.00    +0.000 C 
ATOM     13  C4  UNL     1      -9.129  -0.851   2.054  0.00  0.00    +0.000 C 
ATOM     14  C5  UNL     1      -8.971   0.502   1.435  0.00  0.00    +0.000 C 
ATOM     15  N3  UNL     1      -9.503   0.617   0.116  0.00  0.00    +0.000 NA
ATOM     16  C6  UNL     1      -8.619   0.202  -0.932  0.00  0.00    +0.000 C 
ATOM     17  C7  UNL     1      -7.549   1.214  -1.239  0.00  0.00    +0.000 C 
ATOM     18  N4  UNL     1      -6.350   0.616  -1.780  0.00  0.00    +0.000 NA
ATOM     19  C8  UNL     1      -5.241   1.550  -1.656  0.00  0.00    +0.000 C 
ATOM     20  C9  UNL     1      -3.949   0.801  -1.446  0.00  0.00    +0.000 C 
ATOM     21  C10 UNL     1      -3.388   1.017  -0.062  0.00  0.00    +0.000 C 
ATOM     22  H5  UNL     1      -7.012  -2.196   1.059  0.00  0.00    +0.000 HD
ATOM     23  H12 UNL     1     -10.477   0.258   0.018  0.00  0.00    +0.000 HD
ATOM     24  H17 UNL     1      -6.144  -0.317  -1.412  0.00  0.00    +0.000 HD
ENDBRANCH   7   8
ENDBRANCH   1   7
BRANCH   4  25
ATOM     25  C16 UNL     1       2.430  -1.116  -1.093  0.00  0.00    +0.000 C 
BRANCH  25  26
ATOM     26  N5  UNL     1       3.557  -0.356  -0.651  0.00  0.00    +0.000 NA
ATOM     27  C17 UNL     1       3.281   1.056  -0.815  0.00  0.00    +0.000 C 
ATOM     28  C18 UNL     1       4.063   1.906   0.193  0.00  0.00    +0.000 C 
ATOM     29  N6  UNL     1       5.408   2.177  -0.319  0.00  0.00    +0.000 NA
ATOM     30  C19 UNL     1       6.408   1.639   0.612  0.00  0.00    +0.000 C 
ATOM     31  C20 UNL     1       7.715   2.317   0.363  0.00  0.00    +0.000 C 
ATOM     32  C21 UNL     1       8.874   1.311   0.335  0.00  0.00    +0.000 C 
ATOM     33  N7  UNL     1       8.769   0.572  -0.885  0.00  0.00    +0.000 NA
ATOM     34  C22 UNL     1       9.330  -0.749  -0.826  0.00  0.00    +0.000 C 
ATOM     35  C23 UNL     1       8.634  -1.675   0.115  0.00  0.00    +0.000 C 
ATOM     36  N8  UNL     1       7.744  -2.609  -0.532  0.00  0.00    +0.000 NA
ATOM     37  C24 UNL     1       6.813  -2.000  -1.432  0.00  0.00    +0.000 C 
ATOM     38  C25 UNL     1       5.389  -1.985  -0.892  0.00  0.00    +0.000 C 
ATOM     39  C26 UNL     1       4.700  -0.774  -1.440  0.00  0.00    +0.000 C 
ATOM     40  H34 UNL     1       5.555   3.203  -0.337  0.00  0.00    +0.000 HD
ATOM     41  H41 UNL     1       9.163   1.063  -1.695  0.00  0.00    +0.000 HD
ATOM     42  H46 UNL     1       8.268  -3.392  -0.947  0.00  0.00    +0.000 HD
ENDBRANCH  25  26
ENDBRANCH   4  25
TORSDOF 4
