REMARK  Name = ./3D_structures\o2_MMV1580480_3D.pdb
REMARK  5 active torsions:
REMARK  status: ('A' for Active; 'I' for Inactive)
REMARK    1  A    between atoms: C5_7  and  N2_8
REMARK    2  A    between atoms: C6_9  and  C7_11
REMARK    3  A    between atoms: C7_11  and  N3_12
REMARK    4  A    between atoms: N3_12  and  C8_13
REMARK    5  A    between atoms: N3_12  and  C9_14
REMARK                            x       y       z     vdW  Elec       q    Type
REMARK                         _______ _______ _______ _____ _____    ______ ____
ROOT
ATOM      1  O1  UNL     1       5.784  -1.661  -0.201  0.00  0.00    +0.000 OA
ATOM      2  C1  UNL     1       4.591  -1.282  -0.129  0.00  0.00    +0.000 A 
ATOM      3  N1  UNL     1       3.553  -2.145  -0.053  0.00  0.00    +0.000 N 
ATOM      4  C2  UNL     1       2.286  -1.750   0.023  0.00  0.00    +0.000 A 
ATOM      5  C3  UNL     1       1.951  -0.395   0.029  0.00  0.00    +0.000 A 
ATOM      6  C4  UNL     1       0.646  -0.008   0.109  0.00  0.00    +0.000 A 
ATOM      7  C5  UNL     1      -0.350  -0.994   0.183  0.00  0.00    +0.000 A 
ATOM      8  C10 UNL     1      -0.010  -2.321   0.177  0.00  0.00    +0.000 A 
ATOM      9  C11 UNL     1       1.318  -2.708   0.096  0.00  0.00    +0.000 A 
ATOM     10  C12 UNL     1       2.976   0.534  -0.046  0.00  0.00    +0.000 A 
ATOM     11  C13 UNL     1       4.271   0.070  -0.124  0.00  0.00    +0.000 A 
ATOM     12  C14 UNL     1       5.295   0.997  -0.200  0.00  0.00    +0.000 A 
ATOM     13  C15 UNL     1       5.038   2.348  -0.198  0.00  0.00    +0.000 A 
ATOM     14  C16 UNL     1       3.730   2.772  -0.119  0.00  0.00    +0.000 A 
ATOM     15  C17 UNL     1       2.669   1.871  -0.041  0.00  0.00    +0.000 A 
ATOM     16  H1  UNL     1       3.777  -3.166  -0.055  0.00  0.00    +0.000 HD
ENDROOT
BRANCH   7  17
ATOM     17  N2  UNL     1      -1.702  -0.580   0.288  0.00  0.00    +0.000 N 
ATOM     18  C6  UNL     1      -2.859  -1.341   0.052  0.00  0.00    +0.000 C 
ATOM     19  O2  UNL     1      -2.720  -2.553  -0.301  0.00  0.00    +0.000 OA
ATOM     20  H3  UNL     1      -1.886   0.434   0.595  0.00  0.00    +0.000 HD
BRANCH  18  21
ATOM     21  C7  UNL     1      -4.257  -0.809   0.194  0.00  0.00    +0.000 C 
BRANCH  21  22
ATOM     22  N3  UNL     1      -4.295   0.584   0.570  0.00  0.00    +0.000 NA
ATOM     23  C8  UNL     1      -5.695   0.973   0.804  0.00  0.00    +0.000 C 
ATOM     24  C9  UNL     1      -3.816   1.402  -0.572  0.00  0.00    +0.000 C 
ENDBRANCH  21  22
ENDBRANCH  18  21
ENDBRANCH   7  17
TORSDOF 3
