REMARK  Name = ./3D_structures\o31_MMV690467_3D.pdb
REMARK  10 active torsions:
REMARK  status: ('A' for Active; 'I' for Inactive)
REMARK    1  A    between atoms: C1_2  and  C2_5
REMARK    2  A    between atoms: C3_7  and  C4_10
REMARK    3  A    between atoms: C6_12  and  C18_27
REMARK    4  A    between atoms: C7_13  and  O2_14
REMARK    5  A    between atoms: O2_14  and  C8_15
REMARK    6  A    between atoms: C8_15  and  C9_16
REMARK    7  A    between atoms: C9_16  and  C10_17
REMARK    8  A    between atoms: C10_17  and  C11_18
REMARK    9  A    between atoms: C13_20  and  C14_23
REMARK   10  A    between atoms: C15_24  and  C17_26
REMARK                            x       y       z     vdW  Elec       q    Type
REMARK                         _______ _______ _______ _____ _____    ______ ____
ROOT
ATOM      1  C4  UNL     1      -3.212   0.041  -0.433  0.00  0.00    +0.000 A 
ATOM      2  C5  UNL     1      -2.752   1.346  -0.601  0.00  0.00    +0.000 A 
ATOM      3  C6  UNL     1      -1.417   1.699  -0.612  0.00  0.00    +0.000 A 
ATOM      4  C7  UNL     1      -0.484   0.706  -0.442  0.00  0.00    +0.000 A 
ATOM      5  C15 UNL     1      -0.848  -0.550  -0.268  0.00  0.00    +0.000 A 
ATOM      6  C16 UNL     1      -2.204  -0.939  -0.256  0.00  0.00    +0.000 A 
ATOM      7  C17 UNL     1       0.086  -1.693  -0.075  0.00  0.00    +0.000 C 
ATOM      8  C18 UNL     1      -1.057   3.098  -0.805  0.00  0.00    +0.000 C 
ENDROOT
BRANCH   1  11
ATOM      9  C2  UNL     1      -6.579  -1.100   0.229  0.00  0.00    +0.000 C 
ATOM     10  N1  UNL     1      -5.352  -1.326  -0.214  0.00  0.00    +0.000 NA
ATOM     11  C3  UNL     1      -4.565  -0.310  -0.240  0.00  0.00    +0.000 C 
ATOM     12  N2  UNL     1      -5.509   0.786   0.305  0.00  0.00    +0.000 NA
ATOM     13  O1  UNL     1      -6.533   0.145   0.484  0.00  0.00    +0.000 OA
BRANCH   9  15
ATOM     14  F1  UNL     1      -8.866  -1.567  -0.145  0.00  0.00    +0.000 F 
ATOM     15  C1  UNL     1      -7.719  -2.036   0.398  0.00  0.00    +0.000 C 
ATOM     16  F2  UNL     1      -7.358  -3.253  -0.213  0.00  0.00    +0.000 F 
ATOM     17  F3  UNL     1      -7.907  -2.357   1.737  0.00  0.00    +0.000 F 
ENDBRANCH   9  15
ENDBRANCH   1  11
BRANCH   4  18
ATOM     18  O2  UNL     1       0.819   1.092  -0.438  0.00  0.00    +0.000 OA
BRANCH  18  19
ATOM     19  C8  UNL     1       1.820   1.638   0.230  0.00  0.00    +0.000 C 
BRANCH  19  20
ATOM     20  C9  UNL     1       2.300   1.154   1.558  0.00  0.00    +0.000 C 
BRANCH  20  21
ATOM     21  C10 UNL     1       2.931  -0.160   1.673  0.00  0.00    +0.000 C 
BRANCH  21  22
ATOM     22  C11 UNL     1       4.250  -0.360   1.027  0.00  0.00    +0.000 A 
ATOM     23  C12 UNL     1       4.543  -0.559  -0.276  0.00  0.00    +0.000 A 
ATOM     24  C13 UNL     1       5.936  -0.708  -0.383  0.00  0.00    +0.000 A 
ATOM     25  N3  UNL     1       6.390  -0.587   0.863  0.00  0.00    +0.000 NA
ATOM     26  O3  UNL     1       5.431  -0.388   1.702  0.00  0.00    +0.000 OA
ATOM     27  C14 UNL     1       6.712  -0.949  -1.653  0.00  0.00    +0.000 C 
ENDBRANCH  21  22
ENDBRANCH  20  21
ENDBRANCH  19  20
ENDBRANCH  18  19
ENDBRANCH   4  18
TORSDOF 7
