REMARK  Name = ./3D_structures\o35_MMV1580496_3D.pdb
REMARK  5 active torsions:
REMARK  status: ('A' for Active; 'I' for Inactive)
REMARK    1  A    between atoms: C1_2  and  N1_3
REMARK    2  A    between atoms: C1_2  and  N5_13
REMARK    3  A    between atoms: N1_3  and  N2_4
REMARK    4  A    between atoms: C2_5  and  C3_6
REMARK    5  A    between atoms: C7_11  and  N4_12
REMARK                            x       y       z     vdW  Elec       q    Type
REMARK                         _______ _______ _______ _____ _____    ______ ____
ROOT
ATOM      1  N2  UNL     1       1.314   0.584   0.845  0.00  0.00    +0.000 NA
ATOM      2  C2  UNL     1       0.419  -0.157   0.333  0.00  0.00    +0.000 C 
ENDROOT
BRANCH   2   3
ATOM      3  C3  UNL     1      -0.976   0.286   0.187  0.00  0.00    +0.000 A 
ATOM      4  N3  UNL     1      -1.368   1.510   0.596  0.00  0.00    +0.000 NA
ATOM      5  C4  UNL     1      -2.650   1.933   0.469  0.00  0.00    +0.000 A 
ATOM      6  C5  UNL     1      -3.615   1.118  -0.090  0.00  0.00    +0.000 A 
ATOM      7  C6  UNL     1      -3.235  -0.136  -0.514  0.00  0.00    +0.000 A 
ATOM      8  C7  UNL     1      -1.928  -0.533  -0.370  0.00  0.00    +0.000 A 
BRANCH   8   9
ATOM      9  N4  UNL     1      -1.526  -1.827  -0.805  0.00  0.00    +0.000 N 
ATOM     10  H6  UNL     1      -1.011  -1.919  -1.704  0.00  0.00    +0.000 HD
ATOM     11  H7  UNL     1      -1.781  -2.622  -0.179  0.00  0.00    +0.000 HD
ENDBRANCH   8   9
ENDBRANCH   2   3
BRANCH   1  12
ATOM     12  N1  UNL     1       2.617   0.108   0.955  0.00  0.00    +0.000 N 
ATOM     13  H1  UNL     1       2.942  -0.261   1.860  0.00  0.00    +0.000 HD
BRANCH  12  15
ATOM     14  S1  UNL     1       2.945   0.732  -1.623  0.00  0.00    +0.000 S 
ATOM     15  C1  UNL     1       3.453   0.148  -0.185  0.00  0.00    +0.000 C 
BRANCH  15  16
ATOM     16  N5  UNL     1       4.787  -0.346  -0.051  0.00  0.00    +0.000 N 
ATOM     17  H8  UNL     1       5.604   0.131  -0.503  0.00  0.00    +0.000 HD
ATOM     18  H9  UNL     1       4.905  -1.210   0.524  0.00  0.00    +0.000 HD
ENDBRANCH  15  16
ENDBRANCH  12  15
ENDBRANCH   1  12
TORSDOF 5
