REMARK  Name = ./3D_structures\o37_MMV1782113_3D.pdb
REMARK  5 active torsions:
REMARK  status: ('A' for Active; 'I' for Inactive)
REMARK    1  A    between atoms: N2_9  and  C13_17
REMARK    2  A    between atoms: C6_10  and  C7_11
REMARK    3  A    between atoms: C6_10  and  C10_14
REMARK    4  A    between atoms: C10_14  and  C11_15
REMARK    5  A    between atoms: C11_15  and  C12_16
REMARK                            x       y       z     vdW  Elec       q    Type
REMARK                         _______ _______ _______ _____ _____    ______ ____
ROOT
ATOM      1 CL1  UNL     1       0.665   2.443  -4.045  0.00  0.00    +0.000 Cl
ATOM      2  C1  UNL     1       1.126   2.161  -2.357  0.00  0.00    +0.000 A 
ATOM      3  C2  UNL     1       0.529   1.102  -1.678  0.00  0.00    +0.000 A 
ATOM      4  C3  UNL     1       0.806   0.783  -0.363  0.00  0.00    +0.000 A 
ATOM      5  C4  UNL     1       1.738   1.606   0.254  0.00  0.00    +0.000 A 
ATOM      6  N1  UNL     1       2.048   1.446   1.638  0.00  0.00    +0.000 N 
ATOM      7  C5  UNL     1       1.357   0.423   2.341  0.00  0.00    +0.000 C 
ATOM      8  O1  UNL     1       1.575   0.212   3.567  0.00  0.00    +0.000 OA
ATOM      9  N2  UNL     1       0.401  -0.406   1.723  0.00  0.00    +0.000 N 
ATOM     10  C6  UNL     1       0.187  -0.395   0.292  0.00  0.00    +0.000 C 
ATOM     11  C13 UNL     1      -0.407  -1.319   2.537  0.00  0.00    +0.000 C 
ATOM     12  C14 UNL     1       2.343   2.673  -0.426  0.00  0.00    +0.000 A 
ATOM     13  C15 UNL     1       2.037   2.950  -1.733  0.00  0.00    +0.000 A 
ATOM     14  H2  UNL     1       2.751   2.052   2.118  0.00  0.00    +0.000 HD
ENDROOT
BRANCH  10  15
ATOM     15  C7  UNL     1       0.838  -1.669  -0.273  0.00  0.00    +0.000 C 
ATOM     16  C8  UNL     1       0.765  -2.084  -1.656  0.00  0.00    +0.000 C 
ATOM     17  C9  UNL     1       0.094  -2.893  -0.518  0.00  0.00    +0.000 C 
ENDBRANCH  10  15
BRANCH  10  18
ATOM     18  C10 UNL     1      -1.277  -0.547  -0.054  0.00  0.00    +0.000 C 
BRANCH  18  19
ATOM     19  C11 UNL     1      -2.124   0.613   0.326  0.00  0.00    +0.000 C 
ATOM     20  C12 UNL     1      -3.556   0.274  -0.099  0.00  0.00    +0.000 C 
ENDBRANCH  18  19
ENDBRANCH  10  18
TORSDOF 3
