REMARK  Name = ./3D_structures\o38_MMV1634393_3D.pdb
REMARK  10 active torsions:
REMARK  status: ('A' for Active; 'I' for Inactive)
REMARK    1  A    between atoms: C1_2  and  C2_5
REMARK    2  A    between atoms: N1_9  and  C7_12
REMARK    3  A    between atoms: C7_12  and  C8_13
REMARK    4  A    between atoms: C8_13  and  N2_14
REMARK    5  A    between atoms: C8_13  and  C18_24
REMARK    6  A    between atoms: N2_14  and  C9_15
REMARK    7  A    between atoms: C21_27  and  C22_28
REMARK    8  A    between atoms: C22_28  and  C23_29
REMARK    9  A    between atoms: C22_28  and  C24_30
REMARK   10  A    between atoms: C22_28  and  C25_31
REMARK                            x       y       z     vdW  Elec       q    Type
REMARK                         _______ _______ _______ _____ _____    ______ ____
ROOT
ATOM      1  C8  UNL     1      -0.335   0.065   0.401  0.00  0.00    +0.000 C 
ENDROOT
BRANCH   1   2
ATOM      2  C18 UNL     1       1.104  -0.042   0.085  0.00  0.00    +0.000 A 
ATOM      3  C19 UNL     1       1.989  -0.314   1.122  0.00  0.00    +0.000 A 
ATOM      4  C20 UNL     1       3.332  -0.575   0.950  0.00  0.00    +0.000 A 
ATOM      5  C21 UNL     1       3.800  -0.558  -0.351  0.00  0.00    +0.000 A 
ATOM      6  C26 UNL     1       2.962  -0.291  -1.380  0.00  0.00    +0.000 A 
ATOM      7  C27 UNL     1       1.613  -0.031  -1.177  0.00  0.00    +0.000 A 
BRANCH   5   8
ATOM      8  C22 UNL     1       5.231  -0.963  -0.518  0.00  0.00    +0.000 C 
ATOM      9  C23 UNL     1       6.119   0.142   0.000  0.00  0.00    +0.000 C 
ATOM     10  C24 UNL     1       5.540  -1.346  -1.924  0.00  0.00    +0.000 C 
ATOM     11  C25 UNL     1       5.478  -2.182   0.381  0.00  0.00    +0.000 C 
ENDBRANCH   5   8
ENDBRANCH   1   2
BRANCH   1  12
ATOM     12  N2  UNL     1      -1.245  -0.349  -0.528  0.00  0.00    +0.000 NA
ATOM     13  H7  UNL     1      -1.153   0.013  -1.515  0.00  0.00    +0.000 HD
BRANCH  12  14
ATOM     14  C9  UNL     1      -2.282  -1.206  -0.299  0.00  0.00    +0.000 C 
ATOM     15  C10 UNL     1      -3.378  -0.856   0.656  0.00  0.00    +0.000 C 
ATOM     16  C11 UNL     1      -4.289  -2.045   0.413  0.00  0.00    +0.000 A 
ATOM     17  C12 UNL     1      -4.149  -2.371  -0.929  0.00  0.00    +0.000 A 
ATOM     18  C13 UNL     1      -3.171  -1.428  -1.559  0.00  0.00    +0.000 C 
ATOM     19  C14 UNL     1      -4.888  -3.452  -1.390  0.00  0.00    +0.000 A 
ATOM     20  C15 UNL     1      -5.718  -4.165  -0.551  0.00  0.00    +0.000 A 
ATOM     21  C16 UNL     1      -5.843  -3.828   0.773  0.00  0.00    +0.000 A 
ATOM     22  C17 UNL     1      -5.109  -2.747   1.238  0.00  0.00    +0.000 A 
ENDBRANCH  12  14
ENDBRANCH   1  12
BRANCH   1  23
ATOM     23  C7  UNL     1      -0.606   1.028   1.495  0.00  0.00    +0.000 C 
BRANCH  23  28
ATOM     24  C2  UNL     1      -0.871   4.566   0.271  0.00  0.00    +0.000 A 
ATOM     25  C3  UNL     1      -2.230   4.783   0.370  0.00  0.00    +0.000 A 
ATOM     26  C4  UNL     1      -3.039   3.755   0.826  0.00  0.00    +0.000 A 
ATOM     27  C5  UNL     1      -2.451   2.554   1.163  0.00  0.00    +0.000 A 
ATOM     28  N1  UNL     1      -1.099   2.330   1.065  0.00  0.00    +0.000 N 
ATOM     29  C6  UNL     1      -0.371   3.327   0.631  0.00  0.00    +0.000 A 
ATOM     30  O1  UNL     1       0.873   3.201   0.521  0.00  0.00    +0.000 OA
BRANCH  24  32
ATOM     31  F1  UNL     1       0.980   6.003   0.663  0.00  0.00    +0.000 F 
ATOM     32  C1  UNL     1       0.003   5.663  -0.238  0.00  0.00    +0.000 C 
ATOM     33  F2  UNL     1       0.568   5.326  -1.470  0.00  0.00    +0.000 F 
ATOM     34  F3  UNL     1      -0.761   6.786  -0.424  0.00  0.00    +0.000 F 
ENDBRANCH  24  32
ENDBRANCH  23  28
ENDBRANCH   1  23
TORSDOF 7
