REMARK  Name = ./3D_structures\o3_MMV1580494_3D.pdb
REMARK  18 active torsions:
REMARK  status: ('A' for Active; 'I' for Inactive)
REMARK    1  A    between atoms: C1_2  and  C33_44
REMARK    2  A    between atoms: N1_3  and  C2_4
REMARK    3  A    between atoms: C2_4  and  C3_5
REMARK    4  A    between atoms: C2_4  and  C27_38
REMARK    5  A    between atoms: N2_7  and  C4_8
REMARK    6  A    between atoms: C4_8  and  C5_9
REMARK    7  A    between atoms: C4_8  and  C23_34
REMARK    8  A    between atoms: C6_12  and  C7_13
REMARK    9  A    between atoms: N4_15  and  C8_16
REMARK   10  A    between atoms: C8_16  and  C9_17
REMARK   11  A    between atoms: C8_16  and  C14_25
REMARK   12  A    between atoms: C9_17  and  C10_19
REMARK   13  A    between atoms: N5_21  and  C11_22
REMARK   14  A    between atoms: C14_25  and  C15_26
REMARK   15  A    between atoms: C15_26  and  C16_27
REMARK   16  A    between atoms: C23_34  and  C24_35
REMARK   17  A    between atoms: C23_34  and  C25_36
REMARK   18  A    between atoms: C23_34  and  C26_37
REMARK                            x       y       z     vdW  Elec       q    Type
REMARK                         _______ _______ _______ _____ _____    ______ ____
ROOT
ATOM      1  C5  UNL     1      -0.418  -1.942   0.619  0.00  0.00    +0.000 C 
ATOM      2  O3  UNL     1      -1.556  -2.572   0.353  0.00  0.00    +0.000 OA
ATOM      3  N3  UNL     1       0.691  -2.671   0.246  0.00  0.00    +0.000 N 
ATOM      4  C6  UNL     1       2.086  -2.459   0.350  0.00  0.00    +0.000 C 
ATOM      5  C17 UNL     1       2.838  -3.702  -0.064  0.00  0.00    +0.000 C 
ATOM      6  C18 UNL     1       3.698  -4.240   1.039  0.00  0.00    +0.000 C 
ATOM      7  C19 UNL     1       2.711  -4.888   2.000  0.00  0.00    +0.000 C 
ATOM      8  C20 UNL     1       1.648  -5.433   1.109  0.00  0.00    +0.000 C 
ATOM      9  C21 UNL     1       1.777  -4.724  -0.222  0.00  0.00    +0.000 C 
ATOM     10  C22 UNL     1       0.521  -3.976  -0.457  0.00  0.00    +0.000 C 
ENDROOT
BRANCH   4  11
ATOM     11  C7  UNL     1       2.598  -1.258  -0.379  0.00  0.00    +0.000 C 
ATOM     12  O4  UNL     1       1.775  -0.537  -0.977  0.00  0.00    +0.000 OA
ATOM     13  N4  UNL     1       3.965  -0.974  -0.372  0.00  0.00    +0.000 N 
ATOM     14  H6  UNL     1       4.572  -1.664   0.178  0.00  0.00    +0.000 HD
BRANCH  13  15
ATOM     15  C8  UNL     1       4.664   0.123  -1.013  0.00  0.00    +0.000 C 
BRANCH  15  16
ATOM     16  C9  UNL     1       5.367   0.973  -0.101  0.00  0.00    +0.000 C 
ATOM     17  O5  UNL     1       5.258   0.700   1.152  0.00  0.00    +0.000 OA
BRANCH  16  18
ATOM     18  C10 UNL     1       6.184   2.099  -0.442  0.00  0.00    +0.000 C 
ATOM     19  O6  UNL     1       6.384   2.499  -1.623  0.00  0.00    +0.000 OA
ATOM     20  N5  UNL     1       6.856   2.875   0.573  0.00  0.00    +0.000 N 
ATOM     21  H8  UNL     1       6.716   2.565   1.553  0.00  0.00    +0.000 HD
BRANCH  20  22
ATOM     22  C11 UNL     1       7.676   4.018   0.237  0.00  0.00    +0.000 C 
ATOM     23  C12 UNL     1       9.116   3.964   0.769  0.00  0.00    +0.000 C 
ATOM     24  C13 UNL     1       8.096   4.896   1.347  0.00  0.00    +0.000 C 
ENDBRANCH  20  22
ENDBRANCH  16  18
ENDBRANCH  15  16
BRANCH  15  25
ATOM     25  C14 UNL     1       3.907   0.832  -2.086  0.00  0.00    +0.000 C 
BRANCH  25  26
ATOM     26  C15 UNL     1       3.595  -0.031  -3.285  0.00  0.00    +0.000 C 
ATOM     27  C16 UNL     1       4.894  -0.531  -3.928  0.00  0.00    +0.000 C 
ENDBRANCH  25  26
ENDBRANCH  15  25
ENDBRANCH  13  15
ENDBRANCH   4  11
BRANCH   1  28
ATOM     28  C4  UNL     1      -0.657  -0.654   1.227  0.00  0.00    +0.000 C 
BRANCH  28  31
ATOM     29  C3  UNL     1      -2.799   0.548   0.539  0.00  0.00    +0.000 C 
ATOM     30  O2  UNL     1      -2.078   1.223  -0.261  0.00  0.00    +0.000 OA
ATOM     31  N2  UNL     1      -2.148  -0.420   1.315  0.00  0.00    +0.000 N 
ATOM     32  H3  UNL     1      -2.705  -0.997   1.973  0.00  0.00    +0.000 HD
BRANCH  29  33
ATOM     33  C2  UNL     1      -4.247   0.821   0.600  0.00  0.00    +0.000 C 
BRANCH  33  34
ATOM     34  C27 UNL     1      -5.121  -0.405   0.656  0.00  0.00    +0.000 C 
ATOM     35  C28 UNL     1      -6.522  -0.068   1.122  0.00  0.00    +0.000 C 
ATOM     36  C29 UNL     1      -7.518   0.084   0.022  0.00  0.00    +0.000 C 
ATOM     37  C30 UNL     1      -7.636  -1.102  -0.875  0.00  0.00    +0.000 C 
ATOM     38  C31 UNL     1      -6.446  -1.992  -0.749  0.00  0.00    +0.000 C 
ATOM     39  C32 UNL     1      -5.170  -1.142  -0.667  0.00  0.00    +0.000 C 
ENDBRANCH  33  34
BRANCH  33  42
ATOM     40  O1  UNL     1      -5.201   3.393   1.323  0.00  0.00    +0.000 OA
ATOM     41  C1  UNL     1      -5.179   3.120   0.092  0.00  0.00    +0.000 C 
ATOM     42  N1  UNL     1      -4.704   1.839  -0.303  0.00  0.00    +0.000 N 
ATOM     43  H1  UNL     1      -4.719   1.692  -1.361  0.00  0.00    +0.000 HD
BRANCH  41  44
ATOM     44  C33 UNL     1      -5.632   4.101  -0.888  0.00  0.00    +0.000 A 
ATOM     45  N6  UNL     1      -5.619   3.818  -2.195  0.00  0.00    +0.000 NA
ATOM     46  C34 UNL     1      -6.038   4.706  -3.112  0.00  0.00    +0.000 A 
ATOM     47  C35 UNL     1      -6.501   5.953  -2.756  0.00  0.00    +0.000 A 
ATOM     48  N7  UNL     1      -6.517   6.247  -1.436  0.00  0.00    +0.000 NA
ATOM     49  C36 UNL     1      -6.092   5.343  -0.513  0.00  0.00    +0.000 A 
ENDBRANCH  41  44
ENDBRANCH  33  42
ENDBRANCH  29  33
ENDBRANCH  28  31
BRANCH  28  50
ATOM     50  C23 UNL     1      -0.220  -0.365   2.609  0.00  0.00    +0.000 C 
ATOM     51  C24 UNL     1      -0.674   1.115   2.856  0.00  0.00    +0.000 C 
ATOM     52  C25 UNL     1       1.234  -0.328   2.906  0.00  0.00    +0.000 C 
ATOM     53  C26 UNL     1      -1.019  -1.194   3.566  0.00  0.00    +0.000 C 
ENDBRANCH  28  50
ENDBRANCH   1  28
TORSDOF 14
