REMARK  Name = ./3D_structures\o40_MMV1634389_3D.pdb
REMARK  4 active torsions:
REMARK  status: ('A' for Active; 'I' for Inactive)
REMARK    1  A    between atoms: C1_2  and  C2_5
REMARK    2  A    between atoms: C3_7  and  N4_22
REMARK    3  A    between atoms: N3_11  and  C8_14
REMARK    4  A    between atoms: C8_14  and  C9_15
REMARK                            x       y       z     vdW  Elec       q    Type
REMARK                         _______ _______ _______ _____ _____    ______ ____
ROOT
ATOM      1  C2  UNL     1      -2.823   1.284  -0.275  0.00  0.00    +0.000 A 
ATOM      2  N1  UNL     1      -3.680   0.276  -0.531  0.00  0.00    +0.000 NA
ATOM      3  C3  UNL     1      -3.333  -1.007  -0.389  0.00  0.00    +0.000 A 
ATOM      4  C4  UNL     1      -2.026  -1.356   0.037  0.00  0.00    +0.000 A 
ATOM      5  N2  UNL     1      -1.400  -2.505   0.279  0.00  0.00    +0.000 N 
ATOM      6  C5  UNL     1      -0.140  -2.226   0.702  0.00  0.00    +0.000 A 
ATOM      7  N3  UNL     1       0.047  -0.892   0.737  0.00  0.00    +0.000 N 
ATOM      8  C6  UNL     1      -1.142  -0.350   0.308  0.00  0.00    +0.000 A 
ATOM      9  C7  UNL     1      -1.530   0.948   0.156  0.00  0.00    +0.000 A 
ATOM     10  O1  UNL     1       0.712  -3.098   1.008  0.00  0.00    +0.000 OA
ATOM     11  H1  UNL     1      -1.817  -3.447   0.162  0.00  0.00    +0.000 HD
ENDROOT
BRANCH   1  13
ATOM     12  F1  UNL     1      -2.078   3.487  -0.249  0.00  0.00    +0.000 F 
ATOM     13  C1  UNL     1      -3.188   2.689  -0.455  0.00  0.00    +0.000 C 
ATOM     14  F2  UNL     1      -4.190   3.066   0.401  0.00  0.00    +0.000 F 
ATOM     15  F3  UNL     1      -3.645   2.812  -1.760  0.00  0.00    +0.000 F 
ENDBRANCH   1  13
BRANCH   3  16
ATOM     16  N4  UNL     1      -4.286  -2.030  -0.611  0.00  0.00    +0.000 N 
ATOM     17  H10 UNL     1      -4.388  -2.864   0.026  0.00  0.00    +0.000 HD
ATOM     18  H11 UNL     1      -4.930  -1.985  -1.423  0.00  0.00    +0.000 HD
ENDBRANCH   3  16
BRANCH   7  19
ATOM     19  C8  UNL     1       1.151  -0.161   1.246  0.00  0.00    +0.000 C 
BRANCH  19  20
ATOM     20  C9  UNL     1       2.327   0.126   0.446  0.00  0.00    +0.000 A 
ATOM     21  C10 UNL     1       3.594  -0.370   0.870  0.00  0.00    +0.000 A 
ATOM     22  C11 UNL     1       4.753  -0.042   0.205  0.00  0.00    +0.000 A 
ATOM     23  C12 UNL     1       4.747   0.770  -0.892  0.00  0.00    +0.000 A 
ATOM     24  C13 UNL     1       3.528   1.256  -1.329  0.00  0.00    +0.000 A 
ATOM     25  C14 UNL     1       2.351   0.928  -0.656  0.00  0.00    +0.000 A 
ENDBRANCH  19  20
ENDBRANCH   7  19
TORSDOF 4
