REMARK  Name = ./3D_structures\o42_MMV1593544_3D.pdb
REMARK  16 active torsions:
REMARK  status: ('A' for Active; 'I' for Inactive)
REMARK    1  A    between atoms: C1_2  and  C8_10
REMARK    2  A    between atoms: N1_3  and  C2_4
REMARK    3  A    between atoms: C8_10  and  N2_11
REMARK    4  A    between atoms: C8_10  and  C28_33
REMARK    5  A    between atoms: N2_11  and  C9_12
REMARK    6  A    between atoms: C12_15  and  C13_16
REMARK    7  A    between atoms: C13_16  and  C14_17
REMARK    8  A    between atoms: C13_16  and  C15_18
REMARK    9  A    between atoms: C18_21  and  C19_23
REMARK   10  A    between atoms: C19_23  and  C20_24
REMARK   11  A    between atoms: C30_35  and  O5_43
REMARK   12  A    between atoms: C31_36  and  O3_37
REMARK   13  A    between atoms: O3_37  and  C32_38
REMARK   14  A    between atoms: C33_39  and  O4_41
REMARK   15  A    between atoms: O4_41  and  C35_42
REMARK   16  A    between atoms: O5_43  and  C36_44
REMARK                            x       y       z     vdW  Elec       q    Type
REMARK                         _______ _______ _______ _____ _____    ______ ____
ROOT
ATOM      1  C8  UNL     1      -0.869  -1.013   0.318  0.00  0.00    +0.000 C 
ENDROOT
BRANCH   1   2
ATOM      2  C28 UNL     1      -1.464  -1.498  -0.942  0.00  0.00    +0.000 A 
ATOM      3  C29 UNL     1      -2.762  -1.198  -1.287  0.00  0.00    +0.000 A 
ATOM      4  C30 UNL     1      -3.332  -1.643  -2.457  0.00  0.00    +0.000 A 
ATOM      5  C31 UNL     1      -2.569  -2.431  -3.332  0.00  0.00    +0.000 A 
ATOM      6  C33 UNL     1      -1.276  -2.744  -3.013  0.00  0.00    +0.000 A 
ATOM      7  C34 UNL     1      -0.756  -2.270  -1.826  0.00  0.00    +0.000 A 
BRANCH   5   8
ATOM      8  O3  UNL     1      -3.199  -2.843  -4.483  0.00  0.00    +0.000 OA
ATOM      9  C32 UNL     1      -3.227  -2.157  -5.695  0.00  0.00    +0.000 C 
ENDBRANCH   5   8
BRANCH   6  10
ATOM     10  O4  UNL     1      -0.522  -3.522  -3.874  0.00  0.00    +0.000 OA
ATOM     11  C35 UNL     1       0.815  -3.830  -3.515  0.00  0.00    +0.000 C 
ENDBRANCH   6  10
BRANCH   4  12
ATOM     12  O5  UNL     1      -4.631  -1.317  -2.756  0.00  0.00    +0.000 OA
ATOM     13  C36 UNL     1      -5.378  -0.527  -1.862  0.00  0.00    +0.000 C 
ENDBRANCH   4  12
ENDBRANCH   1   2
BRANCH   1  15
ATOM     14  O1  UNL     1      -1.571   0.297   2.162  0.00  0.00    +0.000 OA
ATOM     15  C1  UNL     1      -1.502   0.182   0.892  0.00  0.00    +0.000 C 
ATOM     16  N1  UNL     1      -2.053   1.249   0.122  0.00  0.00    +0.000 N 
ATOM     17  H1  UNL     1      -2.032   1.229  -0.922  0.00  0.00    +0.000 HD
BRANCH  16  18
ATOM     18  C2  UNL     1      -2.640   2.368   0.849  0.00  0.00    +0.000 C 
ATOM     19  C3  UNL     1      -4.071   2.619   0.452  0.00  0.00    +0.000 C 
ATOM     20  C4  UNL     1      -4.471   4.064   0.699  0.00  0.00    +0.000 C 
ATOM     21  C5  UNL     1      -3.731   4.620   1.897  0.00  0.00    +0.000 C 
ATOM     22  C6  UNL     1      -2.268   4.713   1.541  0.00  0.00    +0.000 C 
ATOM     23  C7  UNL     1      -1.845   3.630   0.567  0.00  0.00    +0.000 C 
ENDBRANCH  16  18
ENDBRANCH   1  15
BRANCH   1  24
ATOM     24  N2  UNL     1       0.584  -0.888   0.277  0.00  0.00    +0.000 N 
ATOM     25  C18 UNL     1       1.268   0.091  -0.487  0.00  0.00    +0.000 C 
ATOM     26  O2  UNL     1       0.594   0.863  -1.205  0.00  0.00    +0.000 OA
BRANCH  24  27
ATOM     27  C9  UNL     1       1.390  -1.773   1.031  0.00  0.00    +0.000 A 
ATOM     28  C10 UNL     1       2.296  -2.600   0.424  0.00  0.00    +0.000 A 
ATOM     29  C11 UNL     1       3.078  -3.492   1.178  0.00  0.00    +0.000 A 
ATOM     30  C12 UNL     1       2.934  -3.538   2.555  0.00  0.00    +0.000 A 
ATOM     31  C16 UNL     1       2.024  -2.705   3.165  0.00  0.00    +0.000 A 
ATOM     32  C17 UNL     1       1.254  -1.824   2.393  0.00  0.00    +0.000 A 
BRANCH  30  33
ATOM     33  C13 UNL     1       3.741  -4.480   3.353  0.00  0.00    +0.000 C 
ATOM     34  C14 UNL     1       4.417  -3.872   4.537  0.00  0.00    +0.000 C 
ATOM     35  C15 UNL     1       2.779  -5.565   3.855  0.00  0.00    +0.000 C 
ENDBRANCH  30  33
ENDBRANCH  24  27
BRANCH  25  36
ATOM     36  C19 UNL     1       2.728   0.292  -0.513  0.00  0.00    +0.000 C 
BRANCH  36  37
ATOM     37  C20 UNL     1       3.101   1.651  -0.024  0.00  0.00    +0.000 A 
ATOM     38  C21 UNL     1       3.608   1.922   1.247  0.00  0.00    +0.000 A 
ATOM     39  N3  UNL     1       3.821   3.245   1.361  0.00  0.00    +0.000 N 
ATOM     40  C22 UNL     1       3.475   3.866   0.214  0.00  0.00    +0.000 A 
ATOM     41  C23 UNL     1       3.028   2.871  -0.646  0.00  0.00    +0.000 A 
ATOM     42  C24 UNL     1       2.613   3.259  -1.901  0.00  0.00    +0.000 A 
ATOM     43  C25 UNL     1       2.638   4.585  -2.287  0.00  0.00    +0.000 A 
ATOM     44  C26 UNL     1       3.088   5.548  -1.408  0.00  0.00    +0.000 A 
ATOM     45  C27 UNL     1       3.512   5.195  -0.145  0.00  0.00    +0.000 A 
ATOM     46  H28 UNL     1       4.198   3.710   2.215  0.00  0.00    +0.000 HD
ENDBRANCH  36  37
ENDBRANCH  25  36
ENDBRANCH   1  24
TORSDOF 11
