REMARK  Name = ./3D_structures\o43_MMV1593521_3D.pdb
REMARK  8 active torsions:
REMARK  status: ('A' for Active; 'I' for Inactive)
REMARK    1  A    between atoms: N1_7  and  C5_8
REMARK    2  A    between atoms: C6_10  and  C7_11
REMARK    3  A    between atoms: C7_11  and  O2_12
REMARK    4  A    between atoms: C8_13  and  O4_16
REMARK    5  A    between atoms: C9_14  and  O3_15
REMARK    6  A    between atoms: N3_21  and  C13_22
REMARK    7  A    between atoms: C13_22  and  C14_23
REMARK    8  A    between atoms: C13_22  and  C15_24
REMARK                            x       y       z     vdW  Elec       q    Type
REMARK                         _______ _______ _______ _____ _____    ______ ____
ROOT
ATOM      1 CL1  UNL     1      -1.308   6.335  -1.292  0.00  0.00    +0.000 Cl
ATOM      2  C1  UNL     1      -0.870   4.633  -1.080  0.00  0.00    +0.000 A 
ATOM      3  C2  UNL     1       0.450   4.261  -1.204  0.00  0.00    +0.000 A 
ATOM      4 CL2  UNL     1       1.691   5.445  -1.566  0.00  0.00    +0.000 Cl
ATOM      5  C3  UNL     1       0.791   2.915  -1.035  0.00  0.00    +0.000 A 
ATOM      6  C4  UNL     1      -0.150   1.960  -0.751  0.00  0.00    +0.000 A 
ATOM      7  N1  UNL     1      -0.080   0.599  -0.543  0.00  0.00    +0.000 N 
ATOM      8  C10 UNL     1      -1.292   0.145  -0.302  0.00  0.00    +0.000 A 
ATOM      9  N2  UNL     1      -2.142   1.227  -0.357  0.00  0.00    +0.000 NA
ATOM     10  C11 UNL     1      -1.447   2.330  -0.631  0.00  0.00    +0.000 A 
ATOM     11  C12 UNL     1      -1.806   3.674  -0.796  0.00  0.00    +0.000 A 
ATOM     12  N3  UNL     1      -1.768  -1.139  -0.030  0.00  0.00    +0.000 N 
ATOM     13  H12 UNL     1      -1.132  -1.947   0.012  0.00  0.00    +0.000 HD
ENDROOT
BRANCH   7  14
ATOM     14  C5  UNL     1       1.169  -0.042  -0.613  0.00  0.00    +0.000 C 
ATOM     15  O1  UNL     1       2.015   0.495   0.411  0.00  0.00    +0.000 OA
ATOM     16  C6  UNL     1       3.163  -0.248   0.386  0.00  0.00    +0.000 C 
ATOM     17  C8  UNL     1       2.896  -1.515  -0.362  0.00  0.00    +0.000 C 
ATOM     18  C9  UNL     1       1.327  -1.476  -0.376  0.00  0.00    +0.000 C 
BRANCH  18  19
ATOM     19  O3  UNL     1       1.034  -2.313  -1.455  0.00  0.00    +0.000 OA
ATOM     20  H9  UNL     1       0.818  -3.204  -1.046  0.00  0.00    +0.000 HD
ENDBRANCH  18  19
BRANCH  17  21
ATOM     21  O4  UNL     1       3.273  -1.344  -1.674  0.00  0.00    +0.000 OA
ATOM     22  H10 UNL     1       2.572  -1.564  -2.337  0.00  0.00    +0.000 HD
ENDBRANCH  17  21
BRANCH  16  23
ATOM     23  C7  UNL     1       3.645  -0.633   1.780  0.00  0.00    +0.000 C 
BRANCH  23  24
ATOM     24  O2  UNL     1       2.710  -1.381   2.460  0.00  0.00    +0.000 OA
ATOM     25  H6  UNL     1       3.116  -1.970   3.138  0.00  0.00    +0.000 HD
ENDBRANCH  23  24
ENDBRANCH  16  23
ENDBRANCH   7  14
BRANCH  12  26
ATOM     26  C13 UNL     1      -3.177  -1.419   0.211  0.00  0.00    +0.000 C 
ATOM     27  C14 UNL     1      -3.406  -2.869   0.475  0.00  0.00    +0.000 C 
ATOM     28  C15 UNL     1      -3.736  -0.625   1.354  0.00  0.00    +0.000 C 
ENDBRANCH  12  26
TORSDOF 6
