REMARK  Name = ./3D_structures\o45_MMV1581036_3D.pdb
REMARK  15 active torsions:
REMARK  status: ('A' for Active; 'I' for Inactive)
REMARK    1  A    between atoms: O1_1  and  C1_2
REMARK    2  A    between atoms: O1_1  and  C22_26
REMARK    3  A    between atoms: C2_3  and  O2_4
REMARK    4  A    between atoms: O2_4  and  C3_5
REMARK    5  A    between atoms: C6_8  and  C8_10
REMARK    6  A    between atoms: C8_10  and  C9_11
REMARK    7  A    between atoms: C9_11  and  C10_12
REMARK    8  A    between atoms: C9_11  and  C21_25
REMARK    9  A    between atoms: C10_12  and  C11_13
REMARK   10  A    between atoms: C10_12  and  C20_24
REMARK   11  A    between atoms: C11_13  and  C12_14
REMARK   12  A    between atoms: C14_16  and  O4_22
REMARK   13  A    between atoms: C15_17  and  O3_18
REMARK   14  A    between atoms: O3_18  and  C16_19
REMARK   15  A    between atoms: O4_22  and  C19_23
REMARK                            x       y       z     vdW  Elec       q    Type
REMARK                         _______ _______ _______ _____ _____    ______ ____
ROOT
ATOM      1  C9  UNL     1       0.614   0.158  -0.703  0.00  0.00    +0.000 C 
ATOM      2  C21 UNL     1       1.137   0.987  -1.859  0.00  0.00    +0.000 C 
ENDROOT
BRANCH   1   3
ATOM      3  C10 UNL     1      -0.824   0.464  -0.512  0.00  0.00    +0.000 C 
ATOM      4  C20 UNL     1      -1.020   1.943  -0.310  0.00  0.00    +0.000 C 
BRANCH   3   5
ATOM      5  C11 UNL     1      -1.418  -0.363   0.594  0.00  0.00    +0.000 C 
BRANCH   5   6
ATOM      6  C12 UNL     1      -2.848  -0.085   0.813  0.00  0.00    +0.000 A 
ATOM      7  C13 UNL     1      -3.814  -0.794   0.136  0.00  0.00    +0.000 A 
ATOM      8  C14 UNL     1      -5.152  -0.512   0.361  0.00  0.00    +0.000 A 
ATOM      9  C15 UNL     1      -5.547   0.482   1.263  0.00  0.00    +0.000 A 
ATOM     10  C17 UNL     1      -4.570   1.185   1.934  0.00  0.00    +0.000 A 
ATOM     11  C18 UNL     1      -3.236   0.892   1.700  0.00  0.00    +0.000 A 
BRANCH   9  12
ATOM     12  O3  UNL     1      -6.904   0.717   1.444  0.00  0.00    +0.000 OA
ATOM     13  C16 UNL     1      -7.264   1.730   2.365  0.00  0.00    +0.000 C 
ENDBRANCH   9  12
BRANCH   8  14
ATOM     14  O4  UNL     1      -6.134  -1.210  -0.307  0.00  0.00    +0.000 OA
ATOM     15  C19 UNL     1      -5.744  -2.215  -1.219  0.00  0.00    +0.000 C 
ENDBRANCH   8  14
ENDBRANCH   5   6
ENDBRANCH   3   5
ENDBRANCH   1   3
BRANCH   1  16
ATOM     16  C8  UNL     1       1.471   0.414   0.504  0.00  0.00    +0.000 C 
BRANCH  16  21
ATOM     17  C1  UNL     1       5.091   0.582  -0.571  0.00  0.00    +0.000 A 
ATOM     18  C2  UNL     1       5.491  -0.708  -0.320  0.00  0.00    +0.000 A 
ATOM     19  C4  UNL     1       4.604  -1.643   0.196  0.00  0.00    +0.000 A 
ATOM     20  C5  UNL     1       3.311  -1.225   0.444  0.00  0.00    +0.000 A 
ATOM     21  C6  UNL     1       2.884   0.074   0.199  0.00  0.00    +0.000 A 
ATOM     22  C7  UNL     1       3.787   0.975  -0.312  0.00  0.00    +0.000 A 
BRANCH  17  23
ATOM     23  O1  UNL     1       5.996   1.498  -1.087  0.00  0.00    +0.000 OA
ATOM     24  C22 UNL     1       5.611   2.826  -1.353  0.00  0.00    +0.000 C 
ENDBRANCH  17  23
BRANCH  18  25
ATOM     25  O2  UNL     1       6.802  -1.059  -0.593  0.00  0.00    +0.000 OA
ATOM     26  C3  UNL     1       7.260  -2.387  -0.348  0.00  0.00    +0.000 C 
ENDBRANCH  18  25
ENDBRANCH  16  21
ENDBRANCH   1  16
TORSDOF 9
