REMARK  Name = ./3D_structures\o48_MMV019724_3D.pdb
REMARK  6 active torsions:
REMARK  status: ('A' for Active; 'I' for Inactive)
REMARK    1  A    between atoms: N2_10  and  C8_11
REMARK    2  A    between atoms: C8_11  and  C9_12
REMARK    3  A    between atoms: C8_11  and  C18_23
REMARK    4  A    between atoms: C10_13  and  O1_14
REMARK    5  A    between atoms: C21_26  and  O2_27
REMARK    6  A    between atoms: O2_27  and  C22_28
REMARK                            x       y       z     vdW  Elec       q    Type
REMARK                         _______ _______ _______ _____ _____    ______ ____
ROOT
ATOM      1  C8  UNL     1       0.244  -0.914   0.669  0.00  0.00    +0.000 C 
ENDROOT
BRANCH   1  11
ATOM      2  S1  UNL     1      -3.053  -2.572  -1.318  0.00  0.00    +0.000 S 
ATOM      3  C1  UNL     1      -1.922  -1.513  -0.268  0.00  0.00    +0.000 A 
ATOM      4  N1  UNL     1      -2.841  -0.667   0.158  0.00  0.00    +0.000 NA
ATOM      5  C2  UNL     1      -4.076  -0.676  -0.130  0.00  0.00    +0.000 A 
ATOM      6  C3  UNL     1      -4.576  -1.666  -0.986  0.00  0.00    +0.000 A 
ATOM      7  C4  UNL     1      -5.879  -1.783  -1.371  0.00  0.00    +0.000 A 
ATOM      8  C5  UNL     1      -6.833  -0.882  -0.915  0.00  0.00    +0.000 A 
ATOM      9  C6  UNL     1      -6.374   0.095  -0.079  0.00  0.00    +0.000 A 
ATOM     10  C7  UNL     1      -5.074   0.217   0.310  0.00  0.00    +0.000 A 
ATOM     11  N2  UNL     1      -0.583  -1.749  -0.147  0.00  0.00    +0.000 N 
ATOM     12  H5  UNL     1      -0.149  -2.551  -0.657  0.00  0.00    +0.000 HD
ENDBRANCH   1  11
BRANCH   1  13
ATOM     13  C9  UNL     1       0.198   0.518   0.207  0.00  0.00    +0.000 A 
ATOM     14  C10 UNL     1       0.585   1.572   1.011  0.00  0.00    +0.000 A 
ATOM     15  C11 UNL     1       0.527   2.881   0.547  0.00  0.00    +0.000 A 
ATOM     16  N3  UNL     1       0.907   3.902   1.345  0.00  0.00    +0.000 NA
ATOM     17  C12 UNL     1       0.835   5.162   0.862  0.00  0.00    +0.000 A 
ATOM     18  C13 UNL     1       0.383   5.413  -0.422  0.00  0.00    +0.000 A 
ATOM     19  C14 UNL     1      -0.003   4.375  -1.235  0.00  0.00    +0.000 A 
ATOM     20  C15 UNL     1       0.072   3.087  -0.736  0.00  0.00    +0.000 A 
ATOM     21  C16 UNL     1      -0.313   2.022  -1.532  0.00  0.00    +0.000 A 
ATOM     22  C17 UNL     1      -0.261   0.723  -1.085  0.00  0.00    +0.000 A 
BRANCH  14  23
ATOM     23  O1  UNL     1       1.035   1.330   2.290  0.00  0.00    +0.000 OA
ATOM     24  H7  UNL     1       1.314   2.111   2.865  0.00  0.00    +0.000 HD
ENDBRANCH  14  23
ENDBRANCH   1  13
BRANCH   1  25
ATOM     25  C18 UNL     1       1.658  -1.406   0.743  0.00  0.00    +0.000 A 
ATOM     26  C19 UNL     1       2.294  -1.773  -0.405  0.00  0.00    +0.000 A 
ATOM     27  C20 UNL     1       3.605  -2.234  -0.342  0.00  0.00    +0.000 A 
ATOM     28  C21 UNL     1       4.324  -2.350   0.824  0.00  0.00    +0.000 A 
ATOM     29  C23 UNL     1       3.640  -1.965   1.988  0.00  0.00    +0.000 A 
ATOM     30  C24 UNL     1       2.347  -1.510   1.927  0.00  0.00    +0.000 A 
BRANCH  28  31
ATOM     31  O2  UNL     1       5.619  -2.803   0.912  0.00  0.00    +0.000 OA
BRANCH  31  32
ATOM     32  C22 UNL     1       6.396  -3.211  -0.169  0.00  0.00    +0.000 C 
ATOM     33  F1  UNL     1       6.793  -4.545  -0.045  0.00  0.00    +0.000 F 
ATOM     34  F2  UNL     1       7.574  -2.476  -0.131  0.00  0.00    +0.000 F 
ENDBRANCH  31  32
ENDBRANCH  28  31
ENDBRANCH   1  25
TORSDOF 6
