REMARK  Name = ./3D_structures\o49_MMV638198_3D.pdb
REMARK  10 active torsions:
REMARK  status: ('A' for Active; 'I' for Inactive)
REMARK    1  A    between atoms: C1_2  and  O2_3
REMARK    2  A    between atoms: C1_2  and  C2_4
REMARK    3  A    between atoms: C5_7  and  C22_25
REMARK    4  A    between atoms: C6_8  and  C21_24
REMARK    5  A    between atoms: C8_10  and  C18_21
REMARK    6  A    between atoms: C10_12  and  C14_17
REMARK    7  A    between atoms: C10_12  and  C15_18
REMARK    8  A    between atoms: C11_13  and  O3_14
REMARK    9  A    between atoms: C25_28  and  C26_29
REMARK   10  A    between atoms: C26_29  and  C28_31
REMARK                            x       y       z     vdW  Elec       q    Type
REMARK                         _______ _______ _______ _____ _____    ______ ____
ROOT
ATOM      1  C2  UNL     1       3.771  -0.748   1.047  0.00  0.00    +0.000 C 
ATOM      2  C3  UNL     1       3.241  -0.358  -0.340  0.00  0.00    +0.000 C 
ATOM      3  C4  UNL     1       1.859   0.091  -0.333  0.00  0.00    +0.000 C 
ATOM      4  C5  UNL     1       0.980  -0.808   0.536  0.00  0.00    +0.000 C 
ATOM      5  C6  UNL     1      -0.350  -0.107   0.656  0.00  0.00    +0.000 C 
ATOM      6  C7  UNL     1      -1.062  -0.270  -0.650  0.00  0.00    +0.000 C 
ATOM      7  C8  UNL     1      -2.500   0.124  -0.661  0.00  0.00    +0.000 C 
ATOM      8  C9  UNL     1      -3.216  -0.405   0.539  0.00  0.00    +0.000 C 
ATOM      9  C10 UNL     1      -4.671  -0.010   0.590  0.00  0.00    +0.000 C 
ATOM     10  C11 UNL     1      -5.395  -0.294  -0.683  0.00  0.00    +0.000 C 
ATOM     11  C12 UNL     1      -4.614  -0.342  -1.925  0.00  0.00    +0.000 C 
ATOM     12  C13 UNL     1      -3.161  -0.646  -1.829  0.00  0.00    +0.000 C 
ATOM     13  C14 UNL     1      -5.275  -0.960   1.647  0.00  0.00    +0.000 C 
ATOM     14  C15 UNL     1      -4.896   1.377   1.113  0.00  0.00    +0.000 C 
ATOM     15  C16 UNL     1      -2.531  -0.223   1.850  0.00  0.00    +0.000 C 
ATOM     16  C17 UNL     1      -1.121  -0.744   1.795  0.00  0.00    +0.000 C 
ATOM     17  C18 UNL     1      -2.714   1.547  -1.012  0.00  0.00    +0.000 C 
ATOM     18  C19 UNL     1      -0.241   0.315  -1.739  0.00  0.00    +0.000 C 
ATOM     19  C20 UNL     1       1.214   0.016  -1.719  0.00  0.00    +0.000 C 
ATOM     20  C21 UNL     1      -0.160   1.337   1.044  0.00  0.00    +0.000 C 
ATOM     21  C22 UNL     1       0.914  -2.174  -0.075  0.00  0.00    +0.000 C 
ATOM     22  C23 UNL     1       1.540  -1.031   1.919  0.00  0.00    +0.000 C 
ATOM     23  C24 UNL     1       2.920  -1.656   1.835  0.00  0.00    +0.000 C 
ATOM     24  C25 UNL     1       4.377   0.562  -0.658  0.00  0.00    +0.000 C 
ATOM     25  C29 UNL     1       5.485  -0.557  -0.594  0.00  0.00    +0.000 C 
ATOM     26  C30 UNL     1       5.086  -1.397   0.600  0.00  0.00    +0.000 C 
ENDROOT
BRANCH  24  27
ATOM     27  C26 UNL     1       4.458   1.280  -1.899  0.00  0.00    +0.000 C 
ATOM     28  C27 UNL     1       5.282   0.948  -2.859  0.00  0.00    +0.000 C 
ATOM     29  C28 UNL     1       3.675   2.530  -2.109  0.00  0.00    +0.000 C 
ENDBRANCH  24  27
BRANCH   1  31
ATOM     30  O1  UNL     1       5.341   0.511   2.325  0.00  0.00    +0.000 OA
ATOM     31  C1  UNL     1       4.173   0.423   1.867  0.00  0.00    +0.000 C 
BRANCH  31  32
ATOM     32  O2  UNL     1       3.337   1.479   2.192  0.00  0.00    +0.000 OA
ATOM     33  H1  UNL     1       3.426   2.011   3.059  0.00  0.00    +0.000 HD
ENDBRANCH  31  32
ENDBRANCH   1  31
BRANCH  10  34
ATOM     34  O3  UNL     1      -6.369   0.728  -0.824  0.00  0.00    +0.000 OA
ATOM     35  H7  UNL     1      -7.208   0.472  -0.337  0.00  0.00    +0.000 HD
ENDBRANCH  10  34
TORSDOF 4
