REMARK  Name = ./3D_structures\o4_MMV275100_3D.pdb
REMARK  6 active torsions:
REMARK  status: ('A' for Active; 'I' for Inactive)
REMARK    1  A    between atoms: C2_3  and  N1_4
REMARK    2  A    between atoms: C8_11  and  N2_13
REMARK    3  A    between atoms: C10_17  and  C11_18
REMARK    4  A    between atoms: C11_18  and  N4_19
REMARK    5  A    between atoms: N5_22  and  C14_23
REMARK    6  A    between atoms: C14_23  and  C15_24
REMARK                            x       y       z     vdW  Elec       q    Type
REMARK                         _______ _______ _______ _____ _____    ______ ____
ROOT
ATOM      1  N1  UNL     1      -1.713  -0.273   0.487  0.00  0.00    +0.000 N 
ATOM      2  C3  UNL     1      -2.946   0.048   0.010  0.00  0.00    +0.000 A 
ATOM      3  O1  UNL     1      -3.793  -0.821  -0.236  0.00  0.00    +0.000 OA
ATOM      4  C4  UNL     1      -3.267   1.373  -0.207  0.00  0.00    +0.000 A 
ATOM      5  C5  UNL     1      -2.305   2.313   0.077  0.00  0.00    +0.000 A 
ATOM      6  C6  UNL     1      -2.559   3.642  -0.115  0.00  0.00    +0.000 A 
ATOM      7  C7  UNL     1      -3.813   3.993  -0.601  0.00  0.00    +0.000 A 
ATOM      8  C8  UNL     1      -4.780   3.078  -0.888  0.00  0.00    +0.000 A 
ATOM      9  C9  UNL     1      -4.507   1.745  -0.690  0.00  0.00    +0.000 A 
ATOM     10  N3  UNL     1      -1.080   1.982   0.552  0.00  0.00    +0.000 NA
ATOM     11  C10 UNL     1      -0.798   0.675   0.753  0.00  0.00    +0.000 A 
ENDROOT
BRANCH   1  14
ATOM     12  F1  UNL     1      -1.157  -1.875  -1.629  0.00  0.00    +0.000 F 
ATOM     13  C1  UNL     1      -1.082  -2.422  -0.377  0.00  0.00    +0.000 A 
ATOM     14  C2  UNL     1      -1.360  -1.629   0.712  0.00  0.00    +0.000 A 
ATOM     15  C18 UNL     1      -1.285  -2.176   1.976  0.00  0.00    +0.000 A 
ATOM     16  C19 UNL     1      -0.931  -3.520   2.142  0.00  0.00    +0.000 A 
ATOM     17  C20 UNL     1      -0.658  -4.293   1.038  0.00  0.00    +0.000 A 
ATOM     18  C21 UNL     1      -0.727  -3.760  -0.250  0.00  0.00    +0.000 A 
ENDBRANCH   1  14
BRANCH   8  19
ATOM     19  N2  UNL     1      -6.074   3.456  -1.393  0.00  0.00    +0.000 N 
ATOM     20  O2  UNL     1      -7.018   2.502  -1.675  0.00  0.00    +0.000 OA
ATOM     21  O3  UNL     1      -6.298   4.665  -1.560  0.00  0.00    +0.000 OA
ENDBRANCH   8  19
BRANCH  11  22
ATOM     22  C11 UNL     1       0.524   0.264   1.278  0.00  0.00    +0.000 C 
BRANCH  22  23
ATOM     23  N4  UNL     1       1.273  -0.544   0.338  0.00  0.00    +0.000 NA
ATOM     24  C12 UNL     1       1.473   0.217  -0.860  0.00  0.00    +0.000 C 
ATOM     25  C13 UNL     1       2.536  -0.350  -1.761  0.00  0.00    +0.000 C 
ATOM     26  N5  UNL     1       3.654  -0.893  -1.095  0.00  0.00    +0.000 NA
ATOM     27  C16 UNL     1       3.431  -1.674   0.064  0.00  0.00    +0.000 C 
ATOM     28  C17 UNL     1       2.493  -0.949   0.983  0.00  0.00    +0.000 C 
BRANCH  26  29
ATOM     29  C14 UNL     1       4.880  -0.214  -1.196  0.00  0.00    +0.000 C 
ATOM     30  C15 UNL     1       4.942   1.120  -0.506  0.00  0.00    +0.000 C 
ENDBRANCH  26  29
ENDBRANCH  22  23
ENDBRANCH  11  22
TORSDOF 5
