REMARK  Name = ./3D_structures\o51_MMV658803_3D.pdb
REMARK  7 active torsions:
REMARK  status: ('A' for Active; 'I' for Inactive)
REMARK    1  A    between atoms: C3_4  and  C7_8
REMARK    2  A    between atoms: N1_12  and  C27_34
REMARK    3  A    between atoms: C13_16  and  C14_17
REMARK    4  A    between atoms: C14_17  and  N2_18
REMARK    5  A    between atoms: C14_17  and  C15_19
REMARK    6  A    between atoms: C14_17  and  C21_26
REMARK    7  A    between atoms: N4_30  and  C24_31
REMARK                            x       y       z     vdW  Elec       q    Type
REMARK                         _______ _______ _______ _____ _____    ______ ____
ROOT
ATOM      1  C7  UNL     1       3.068  -0.115  -0.458  0.00  0.00    +0.000 A 
ATOM      2  C8  UNL     1       4.116  -0.704  -1.168  0.00  0.00    +0.000 A 
ATOM      3  C9  UNL     1       3.830  -1.705  -2.057  0.00  0.00    +0.000 A 
ATOM      4  O1  UNL     1       4.749  -2.257  -2.713  0.00  0.00    +0.000 OA
ATOM      5  N1  UNL     1       2.574  -2.131  -2.261  0.00  0.00    +0.000 N 
ATOM      6  C10 UNL     1       1.518  -1.597  -1.602  0.00  0.00    +0.000 A 
ATOM      7  C11 UNL     1       1.789  -0.581  -0.697  0.00  0.00    +0.000 A 
ATOM      8  C12 UNL     1       0.718  -0.015  -0.026  0.00  0.00    +0.000 A 
ATOM      9  C13 UNL     1      -0.547  -0.482  -0.282  0.00  0.00    +0.000 A 
ATOM     10  C25 UNL     1      -0.802  -1.496  -1.185  0.00  0.00    +0.000 A 
ATOM     11  C26 UNL     1       0.240  -2.068  -1.859  0.00  0.00    +0.000 A 
ATOM     12  C27 UNL     1       2.304  -3.187  -3.202  0.00  0.00    +0.000 C 
ENDROOT
BRANCH   1  16
ATOM     13 CL1  UNL     1       2.769   1.661   4.449  0.00  0.00    +0.000 Cl
ATOM     14  C1  UNL     1       3.241   1.806   2.768  0.00  0.00    +0.000 A 
ATOM     15  C2  UNL     1       2.971   0.793   1.841  0.00  0.00    +0.000 A 
ATOM     16  C3  UNL     1       3.348   0.924   0.526  0.00  0.00    +0.000 A 
ATOM     17  C4  UNL     1       3.999   2.082   0.156  0.00  0.00    +0.000 A 
ATOM     18  C5  UNL     1       4.267   3.086   1.075  0.00  0.00    +0.000 A 
ATOM     19  C6  UNL     1       3.892   2.964   2.397  0.00  0.00    +0.000 A 
ENDBRANCH   1  16
BRANCH   9  20
ATOM     20  C14 UNL     1      -1.678   0.164   0.482  0.00  0.00    +0.000 C 
BRANCH  20  21
ATOM     21  C15 UNL     1      -2.771  -0.855   0.649  0.00  0.00    +0.000 A 
ATOM     22  C16 UNL     1      -2.540  -2.015   1.347  0.00  0.00    +0.000 A 
ATOM     23  C17 UNL     1      -3.553  -2.971   1.509  0.00  0.00    +0.000 A 
ATOM     24  C18 UNL     1      -4.803  -2.746   0.959  0.00  0.00    +0.000 A 
ATOM     25 CL2  UNL     1      -6.090  -3.945   1.156  0.00  0.00    +0.000 Cl
ATOM     26  C19 UNL     1      -5.034  -1.587   0.261  0.00  0.00    +0.000 A 
ATOM     27  C20 UNL     1      -4.018  -0.648   0.110  0.00  0.00    +0.000 A 
ENDBRANCH  20  21
BRANCH  20  28
ATOM     28  C21 UNL     1      -2.118   1.308  -0.305  0.00  0.00    +0.000 A 
ATOM     29  C22 UNL     1      -2.368   1.198  -1.681  0.00  0.00    +0.000 A 
ATOM     30  N3  UNL     1      -2.761   2.429  -2.092  0.00  0.00    +0.000 NA
ATOM     31  C23 UNL     1      -2.748   3.229  -1.023  0.00  0.00    +0.000 A 
ATOM     32  N4  UNL     1      -2.353   2.541   0.077  0.00  0.00    +0.000 N 
ATOM     33  C24 UNL     1      -2.236   3.092   1.381  0.00  0.00    +0.000 C 
ENDBRANCH  20  28
BRANCH  20  34
ATOM     34  N2  UNL     1      -1.172   0.452   1.791  0.00  0.00    +0.000 NA
ATOM     35  H7  UNL     1      -0.580   1.279   1.891  0.00  0.00    +0.000 HD
ATOM     36  H8  UNL     1      -0.626  -0.386   2.113  0.00  0.00    +0.000 HD
ENDBRANCH  20  34
ENDBRANCH   9  20
TORSDOF 5
