REMARK  Name = ./3D_structures\o52_MMV1580500_3D.pdb
REMARK  2 active torsions:
REMARK  status: ('A' for Active; 'I' for Inactive)
REMARK    1  A    between atoms: C3_4  and  O2_5
REMARK    2  A    between atoms: N1_10  and  C8_11
REMARK                            x       y       z     vdW  Elec       q    Type
REMARK                         _______ _______ _______ _____ _____    ______ ____
ROOT
ATOM      1  O1  UNL     1       0.383  -2.769   0.329  0.00  0.00    +0.000 OA
ATOM      2  C1  UNL     1       0.226  -1.543   0.186  0.00  0.00    +0.000 A 
ATOM      3  C2  UNL     1      -1.035  -1.028  -0.013  0.00  0.00    +0.000 A 
ATOM      4  C3  UNL     1      -2.174  -1.804  -0.065  0.00  0.00    +0.000 A 
ATOM      5  C4  UNL     1      -3.442  -1.234  -0.268  0.00  0.00    +0.000 A 
ATOM      6  C5  UNL     1      -3.516   0.123  -0.414  0.00  0.00    +0.000 A 
ATOM      7  C6  UNL     1      -2.366   0.902  -0.361  0.00  0.00    +0.000 A 
ATOM      8  C7  UNL     1      -1.121   0.338  -0.162  0.00  0.00    +0.000 A 
ATOM      9  N1  UNL     1      -0.004   1.128  -0.112  0.00  0.00    +0.000 N 
ATOM     10  C8  UNL     1      -0.206   2.528  -0.287  0.00  0.00    +0.000 C 
ATOM     11  C9  UNL     1       1.232   0.632   0.083  0.00  0.00    +0.000 A 
ATOM     12  C10 UNL     1       1.354  -0.752   0.238  0.00  0.00    +0.000 A 
ATOM     13  C11 UNL     1       2.617  -1.279   0.441  0.00  0.00    +0.000 A 
ATOM     14  C12 UNL     1       3.764  -0.517   0.500  0.00  0.00    +0.000 A 
ATOM     15  C13 UNL     1       3.602   0.849   0.343  0.00  0.00    +0.000 A 
ATOM     16  C14 UNL     1       2.366   1.409   0.139  0.00  0.00    +0.000 A 
ENDROOT
BRANCH   4  17
ATOM     17  O2  UNL     1      -2.141  -3.152   0.076  0.00  0.00    +0.000 OA
ATOM     18  H1  UNL     1      -1.469  -3.829   0.221  0.00  0.00    +0.000 HD
ENDBRANCH   4  17
TORSDOF 1
