REMARK  Name = ./3D_structures\o54_MMV1580488_3D.pdb
REMARK  9 active torsions:
REMARK  status: ('A' for Active; 'I' for Inactive)
REMARK    1  A    between atoms: C1_2  and  C7_10
REMARK    2  A    between atoms: N1_3  and  C2_4
REMARK    3  A    between atoms: C2_4  and  C3_5
REMARK    4  A    between atoms: C3_5  and  C4_6
REMARK    5  A    between atoms: C4_6  and  N2_7
REMARK    6  A    between atoms: N2_7  and  C5_8
REMARK    7  A    between atoms: N2_7  and  C6_9
REMARK    8  A    between atoms: C10_13  and  C11_14
REMARK    9  A    between atoms: C18_22  and  O2_24
REMARK                            x       y       z     vdW  Elec       q    Type
REMARK                         _______ _______ _______ _____ _____    ______ ____
ROOT
ATOM      1  C7  UNL     1      -0.307   0.000  -0.800  0.00  0.00    +0.000 A 
ATOM      2  C8  UNL     1       0.393   0.833   0.036  0.00  0.00    +0.000 A 
ATOM      3  C9  UNL     1       1.772   0.739   0.049  0.00  0.00    +0.000 A 
ATOM      4  C10 UNL     1       2.488  -0.146  -0.732  0.00  0.00    +0.000 A 
ATOM      5  C20 UNL     1       1.773  -0.965  -1.555  0.00  0.00    +0.000 A 
ATOM      6  C21 UNL     1       0.387  -0.909  -1.604  0.00  0.00    +0.000 A 
ENDROOT
BRANCH   4   7
ATOM      7  C11 UNL     1       3.951  -0.158  -0.639  0.00  0.00    +0.000 A 
ATOM      8  C12 UNL     1       4.604   0.138   0.531  0.00  0.00    +0.000 A 
ATOM      9  C13 UNL     1       5.980   0.142   0.656  0.00  0.00    +0.000 A 
ATOM     10  C14 UNL     1       6.610   0.449   1.861  0.00  0.00    +0.000 A 
ATOM     11  C15 UNL     1       7.984   0.452   1.974  0.00  0.00    +0.000 A 
ATOM     12  C16 UNL     1       8.712   0.138   0.846  0.00  0.00    +0.000 A 
ATOM     13  N3  UNL     1       8.082  -0.160  -0.325  0.00  0.00    +0.000 NA
ATOM     14  C17 UNL     1       6.745  -0.163  -0.438  0.00  0.00    +0.000 A 
ATOM     15  C18 UNL     1       6.120  -0.471  -1.649  0.00  0.00    +0.000 A 
ATOM     16  C19 UNL     1       4.745  -0.467  -1.742  0.00  0.00    +0.000 A 
BRANCH  15  17
ATOM     17  O2  UNL     1       6.898  -0.775  -2.740  0.00  0.00    +0.000 OA
ATOM     18  H21 UNL     1       6.453  -0.997  -3.617  0.00  0.00    +0.000 HD
ENDBRANCH  15  17
ENDBRANCH   4   7
BRANCH   1  20
ATOM     19  O1  UNL     1      -2.325  -0.447  -1.813  0.00  0.00    +0.000 OA
ATOM     20  C1  UNL     1      -1.760   0.078  -0.826  0.00  0.00    +0.000 C 
ATOM     21  N1  UNL     1      -2.516   0.698   0.178  0.00  0.00    +0.000 N 
ATOM     22  H1  UNL     1      -2.019   1.125   0.990  0.00  0.00    +0.000 HD
BRANCH  21  23
ATOM     23  C2  UNL     1      -3.977   0.764   0.134  0.00  0.00    +0.000 C 
BRANCH  23  24
ATOM     24  C3  UNL     1      -4.527  -0.604   0.152  0.00  0.00    +0.000 C 
BRANCH  24  25
ATOM     25  C4  UNL     1      -5.987  -0.784   0.103  0.00  0.00    +0.000 C 
BRANCH  25  26
ATOM     26  N2  UNL     1      -6.723  -0.218   1.178  0.00  0.00    +0.000 NA
ATOM     27  C5  UNL     1      -8.105  -0.758   1.053  0.00  0.00    +0.000 C 
ATOM     28  C6  UNL     1      -6.886   1.241   1.087  0.00  0.00    +0.000 C 
ENDBRANCH  25  26
ENDBRANCH  24  25
ENDBRANCH  23  24
ENDBRANCH  21  23
ENDBRANCH   1  20
TORSDOF 7
