REMARK  Name = ./3D_structures\o55_MMV1580486_3D.pdb
REMARK  7 active torsions:
REMARK  status: ('A' for Active; 'I' for Inactive)
REMARK    1  A    between atoms: S1_1  and  N1_4
REMARK    2  A    between atoms: S1_1  and  C1_5
REMARK    3  A    between atoms: C2_6  and  C18_27
REMARK    4  A    between atoms: N3_10  and  C17_26
REMARK    5  A    between atoms: C4_11  and  C5_13
REMARK    6  A    between atoms: C5_13  and  C6_14
REMARK    7  A    between atoms: C9_17  and  C10_18
REMARK                            x       y       z     vdW  Elec       q    Type
REMARK                         _______ _______ _______ _____ _____    ______ ____
ROOT
ATOM      1  C1  UNL     1      -4.693   0.602   0.701  0.00  0.00    +0.000 A 
ATOM      2  C2  UNL     1      -4.881  -0.469  -0.144  0.00  0.00    +0.000 A 
ATOM      3  N2  UNL     1      -3.970  -0.563  -1.084  0.00  0.00    +0.000 NA
ATOM      4  C3  UNL     1      -3.059   0.071  -1.330  0.00  0.00    +0.000 A 
ATOM      5  S2  UNL     1      -3.176   1.404   0.050  0.00  0.00    +0.000 S 
ATOM      6  N3  UNL     1      -1.953   0.203  -2.238  0.00  0.00    +0.000 N 
ATOM      7  C4  UNL     1      -0.632   0.123  -1.759  0.00  0.00    +0.000 C 
ATOM      8  O3  UNL     1       0.321   0.242  -2.579  0.00  0.00    +0.000 OA
ATOM      9  C17 UNL     1      -2.274   0.416  -3.631  0.00  0.00    +0.000 C 
ATOM     10  C18 UNL     1      -6.041  -1.409   0.039  0.00  0.00    +0.000 C 
ENDROOT
BRANCH   1  11
ATOM     11  S1  UNL     1      -5.596   1.164   2.091  0.00  0.00    +0.000 S 
ATOM     12  O1  UNL     1      -4.663   1.822   3.079  0.00  0.00    +0.000 OA
ATOM     13  O2  UNL     1      -6.237   0.005   2.796  0.00  0.00    +0.000 OA
BRANCH  11  14
ATOM     14  N1  UNL     1      -6.845   2.269   1.610  0.00  0.00    +0.000 NA
ATOM     15  H1  UNL     1      -6.395   3.098   1.126  0.00  0.00    +0.000 HD
ATOM     16  H2  UNL     1      -7.456   1.831   0.890  0.00  0.00    +0.000 HD
ENDBRANCH  11  14
ENDBRANCH   1  11
BRANCH   7  17
ATOM     17  C5  UNL     1      -0.310  -0.095  -0.338  0.00  0.00    +0.000 C 
BRANCH  17  18
ATOM     18  C6  UNL     1       1.144  -0.138  -0.088  0.00  0.00    +0.000 A 
ATOM     19  C7  UNL     1       1.830   1.011   0.217  0.00  0.00    +0.000 A 
ATOM     20  C8  UNL     1       3.197   0.962   0.451  0.00  0.00    +0.000 A 
ATOM     21  C9  UNL     1       3.884  -0.248   0.379  0.00  0.00    +0.000 A 
ATOM     22  C15 UNL     1       3.192  -1.395   0.074  0.00  0.00    +0.000 A 
ATOM     23  C16 UNL     1       1.813  -1.324  -0.158  0.00  0.00    +0.000 A 
BRANCH  21  24
ATOM     24  C10 UNL     1       5.307  -0.309   0.622  0.00  0.00    +0.000 A 
ATOM     25  N4  UNL     1       5.966   0.840   0.925  0.00  0.00    +0.000 NA
ATOM     26  C11 UNL     1       7.281   0.845   1.159  0.00  0.00    +0.000 A 
ATOM     27  C12 UNL     1       8.064  -0.290   1.114  0.00  0.00    +0.000 A 
ATOM     28  C13 UNL     1       7.427  -1.471   0.809  0.00  0.00    +0.000 A 
ATOM     29  C14 UNL     1       6.060  -1.447   0.571  0.00  0.00    +0.000 A 
ENDBRANCH  21  24
ENDBRANCH  17  18
ENDBRANCH   7  17
TORSDOF 5
