REMARK  Name = ./3D_structures\o60_MMV1782214_3D.pdb
REMARK  17 active torsions:
REMARK  status: ('A' for Active; 'I' for Inactive)
REMARK    1  A    between atoms: C1_1  and  N1_2
REMARK    2  A    between atoms: N1_2  and  C2_3
REMARK    3  A    between atoms: N1_2  and  S1_37
REMARK    4  A    between atoms: C2_3  and  C3_4
REMARK    5  A    between atoms: C3_4  and  C4_5
REMARK    6  A    between atoms: C3_4  and  C5_6
REMARK    7  A    between atoms: C3_4  and  C23_31
REMARK    8  A    between atoms: C5_6  and  C6_7
REMARK    9  A    between atoms: C6_7  and  N2_8
REMARK   10  A    between atoms: C9_11  and  N3_14
REMARK   11  A    between atoms: N3_14  and  C12_15
REMARK   12  A    between atoms: C12_15  and  C13_16
REMARK   13  A    between atoms: C15_18  and  O2_20
REMARK   14  A    between atoms: O2_20  and  C16_21
REMARK   15  A    between atoms: C16_21  and  C17_22
REMARK   16  A    between atoms: C20_25  and  N4_28
REMARK   17  A    between atoms: S1_37  and  C29_40
REMARK                            x       y       z     vdW  Elec       q    Type
REMARK                         _______ _______ _______ _____ _____    ______ ____
ROOT
ATOM      1  N2  UNL     1       0.158   0.338  -0.258  0.00  0.00    +0.000 NA
ATOM      2  C7  UNL     1       0.853  -0.446  -1.138  0.00  0.00    +0.000 C 
ATOM      3  C8  UNL     1       2.181  -0.899  -0.765  0.00  0.00    +0.000 C 
ATOM      4  C9  UNL     1       2.966   0.117   0.202  0.00  0.00    +0.000 C 
ATOM      5  C10 UNL     1       2.053   0.769   1.084  0.00  0.00    +0.000 C 
ATOM      6  C11 UNL     1       0.869   1.392   0.444  0.00  0.00    +0.000 C 
ENDROOT
BRANCH   4   7
ATOM      7  N3  UNL     1       3.843   0.823  -0.605  0.00  0.00    +0.000 N 
ATOM      8  C15 UNL     1       4.941   0.156  -1.298  0.00  0.00    +0.000 C 
ATOM      9  O1  UNL     1       5.180   0.895  -2.353  0.00  0.00    +0.000 OA
BRANCH   7  10
ATOM     10  C12 UNL     1       4.071   2.263  -0.631  0.00  0.00    +0.000 C 
BRANCH  10  11
ATOM     11  C13 UNL     1       4.523   2.829   0.681  0.00  0.00    +0.000 C 
ATOM     12  C14 UNL     1       4.606   3.673   1.574  0.00  0.00    +0.000 C 
ENDBRANCH  10  11
ENDBRANCH   7  10
BRANCH   8  13
ATOM     13  O2  UNL     1       5.493  -0.964  -0.905  0.00  0.00    +0.000 OA
BRANCH  13  14
ATOM     14  C16 UNL     1       6.597  -1.644  -1.525  0.00  0.00    +0.000 C 
BRANCH  14  15
ATOM     15  C17 UNL     1       7.591  -1.701  -0.339  0.00  0.00    +0.000 A 
ATOM     16  C18 UNL     1       7.380  -0.941   0.771  0.00  0.00    +0.000 A 
ATOM     17  C19 UNL     1       8.456  -0.553   1.627  0.00  0.00    +0.000 A 
ATOM     18  C20 UNL     1       9.689  -1.074   1.262  0.00  0.00    +0.000 A 
ATOM     19  C21 UNL     1       9.844  -1.856   0.174  0.00  0.00    +0.000 A 
ATOM     20  C22 UNL     1       8.813  -2.195  -0.677  0.00  0.00    +0.000 A 
BRANCH  18  21
ATOM     21  N4  UNL     1      10.864  -0.441   1.853  0.00  0.00    +0.000 N 
ATOM     22  O3  UNL     1      12.085  -0.797   1.475  0.00  0.00    +0.000 OA
ATOM     23  O4  UNL     1      10.727   0.527   2.664  0.00  0.00    +0.000 OA
ENDBRANCH  18  21
ENDBRANCH  14  15
ENDBRANCH  13  14
ENDBRANCH   8  13
ENDBRANCH   4   7
BRANCH   1  24
ATOM     24  C6  UNL     1      -0.887  -0.120   0.541  0.00  0.00    +0.000 C 
BRANCH  24  25
ATOM     25  C5  UNL     1      -2.059  -0.675  -0.140  0.00  0.00    +0.000 C 
BRANCH  25  26
ATOM     26  C3  UNL     1      -3.314  -0.544   0.683  0.00  0.00    +0.000 C 
ATOM     27  C4  UNL     1      -3.232  -0.907   2.144  0.00  0.00    +0.000 C 
BRANCH  26  28
ATOM     28  C23 UNL     1      -3.725   0.865   0.860  0.00  0.00    +0.000 A 
ATOM     29  C24 UNL     1      -4.828   1.263   1.470  0.00  0.00    +0.000 A 
ATOM     30  C25 UNL     1      -5.262   2.470   1.766  0.00  0.00    +0.000 A 
ATOM     31  C26 UNL     1      -4.487   3.646   1.398  0.00  0.00    +0.000 A 
ATOM     32  C27 UNL     1      -3.306   3.289   0.662  0.00  0.00    +0.000 A 
ATOM     33  C28 UNL     1      -2.946   1.985   0.403  0.00  0.00    +0.000 A 
ENDBRANCH  26  28
BRANCH  26  34
ATOM     34  C2  UNL     1      -4.355  -1.360   0.002  0.00  0.00    +0.000 C 
BRANCH  34  36
ATOM     35  C1  UNL     1      -5.115  -2.729  -1.675  0.00  0.00    +0.000 C 
ATOM     36  N1  UNL     1      -4.526  -1.371  -1.399  0.00  0.00    +0.000 NA
BRANCH  36  37
ATOM     37  S1  UNL     1      -5.597  -0.277  -2.151  0.00  0.00    +0.000 S 
ATOM     38  O5  UNL     1      -5.186   1.115  -2.045  0.00  0.00    +0.000 OA
ATOM     39  O6  UNL     1      -5.817  -0.742  -3.558  0.00  0.00    +0.000 OA
BRANCH  37  40
ATOM     40  C29 UNL     1      -7.206  -0.442  -1.363  0.00  0.00    +0.000 A 
ATOM     41  C30 UNL     1      -8.199  -1.202  -1.886  0.00  0.00    +0.000 A 
ATOM     42  C31 UNL     1      -9.306  -1.486  -1.023  0.00  0.00    +0.000 A 
ATOM     43  C32 UNL     1      -9.311  -0.940   0.230  0.00  0.00    +0.000 A 
ATOM     44  C33 UNL     1      -8.384  -0.202   0.787  0.00  0.00    +0.000 A 
ATOM     45  C34 UNL     1      -7.270   0.012  -0.116  0.00  0.00    +0.000 A 
ENDBRANCH  37  40
ENDBRANCH  36  37
ENDBRANCH  34  36
ENDBRANCH  26  34
ENDBRANCH  25  26
ENDBRANCH  24  25
ENDBRANCH   1  24
TORSDOF 15
