REMARK  Name = ./3D_structures\o63_MMV1782208_3D.pdb
REMARK  4 active torsions:
REMARK  status: ('A' for Active; 'I' for Inactive)
REMARK    1  A    between atoms: C1_1  and  N1_2
REMARK    2  A    between atoms: C3_5  and  C18_25
REMARK    3  A    between atoms: N2_8  and  C5_9
REMARK    4  A    between atoms: C13_17  and  C17_21
REMARK                            x       y       z     vdW  Elec       q    Type
REMARK                         _______ _______ _______ _____ _____    ______ ____
ROOT
ATOM      1  C1  UNL     1       1.346  -3.197  -1.160  0.00  0.00    +0.000 C 
ATOM      2  N1  UNL     1       0.910  -1.874  -0.694  0.00  0.00    +0.000 N 
ATOM      3  C2  UNL     1       1.777  -0.830  -0.956  0.00  0.00    +0.000 C 
ATOM      4  O1  UNL     1       2.858  -1.178  -1.525  0.00  0.00    +0.000 OA
ATOM      5  C3  UNL     1       1.777   0.645  -0.750  0.00  0.00    +0.000 C 
ATOM      6  C4  UNL     1       0.587   1.147  -0.058  0.00  0.00    +0.000 C 
ATOM      7  O2  UNL     1       0.704   2.217   0.603  0.00  0.00    +0.000 OA
ATOM      8  N2  UNL     1      -0.775   0.622   0.023  0.00  0.00    +0.000 N 
ATOM      9  C11 UNL     1      -1.111  -0.729   0.214  0.00  0.00    +0.000 A 
ATOM     10  C12 UNL     1      -2.349  -0.937   0.758  0.00  0.00    +0.000 A 
ATOM     11  C13 UNL     1      -2.828  -2.202   1.033  0.00  0.00    +0.000 A 
ATOM     12  C14 UNL     1      -2.039  -3.320   0.751  0.00  0.00    +0.000 A 
ATOM     13  C15 UNL     1      -0.798  -3.097   0.204  0.00  0.00    +0.000 A 
ATOM     14  C16 UNL     1      -0.332  -1.850  -0.065  0.00  0.00    +0.000 A 
ENDROOT
BRANCH   8  15
ATOM     15  C5  UNL     1      -1.818   1.546  -0.138  0.00  0.00    +0.000 A 
ATOM     16  C6  UNL     1      -2.231   1.737  -1.468  0.00  0.00    +0.000 A 
ATOM     17  C7  UNL     1      -3.214   2.639  -1.805  0.00  0.00    +0.000 A 
ATOM     18  C8  UNL     1      -3.817   3.371  -0.832  0.00  0.00    +0.000 A 
ATOM     19  C9  UNL     1      -3.444   3.217   0.477  0.00  0.00    +0.000 A 
ATOM     20  C10 UNL     1      -2.430   2.285   0.814  0.00  0.00    +0.000 A 
ENDBRANCH   8  15
BRANCH   5  21
ATOM     21  C18 UNL     1       3.078   0.968  -0.164  0.00  0.00    +0.000 A 
ATOM     22  C19 UNL     1       3.932   1.894  -0.717  0.00  0.00    +0.000 A 
ATOM     23  C20 UNL     1       5.190   2.124  -0.224  0.00  0.00    +0.000 A 
ATOM     24  C21 UNL     1       5.660   1.430   0.866  0.00  0.00    +0.000 A 
ATOM     25  C22 UNL     1       4.811   0.485   1.449  0.00  0.00    +0.000 A 
ATOM     26  C23 UNL     1       3.571   0.267   0.952  0.00  0.00    +0.000 A 
ENDBRANCH   5  21
BRANCH  11  27
ATOM     27  C17 UNL     1      -4.176  -2.428   1.584  0.00  0.00    +0.000 C 
ATOM     28  F1  UNL     1      -4.502  -1.580   2.601  0.00  0.00    +0.000 F 
ATOM     29  F2  UNL     1      -4.260  -3.718   2.102  0.00  0.00    +0.000 F 
ATOM     30  F3  UNL     1      -5.095  -2.381   0.542  0.00  0.00    +0.000 F 
ENDBRANCH  11  27
TORSDOF 3
