REMARK  Name = ./3D_structures\o64_MMV1006203_3D.pdb
REMARK  1 active torsions:
REMARK  status: ('A' for Active; 'I' for Inactive)
REMARK    1  A    between atoms: C3_4  and  C4_5
REMARK                            x       y       z     vdW  Elec       q    Type
REMARK                         _______ _______ _______ _____ _____    ______ ____
ROOT
ATOM      1  O1  UNL     1       2.109  -2.110  -1.908  0.00  0.00    +0.000 OA
ATOM      2  C1  UNL     1       1.552  -1.259  -1.121  0.00  0.00    +0.000 C 
ATOM      3  C2  UNL     1       0.114  -1.069  -1.134  0.00  0.00    +0.000 C 
ATOM      4  C3  UNL     1      -0.572  -0.239  -0.387  0.00  0.00    +0.000 C 
ATOM      5  S1  UNL     1       0.287   0.768   0.763  0.00  0.00    +0.000 S 
ATOM      6  O2  UNL     1      -0.139   0.447   2.172  0.00  0.00    +0.000 OA
ATOM      7  O3  UNL     1       0.056   2.232   0.451  0.00  0.00    +0.000 OA
ATOM      8  C10 UNL     1       1.978   0.400   0.631  0.00  0.00    +0.000 A 
ATOM      9  C11 UNL     1       2.841   1.107   1.476  0.00  0.00    +0.000 A 
ATOM     10  C12 UNL     1       4.199   0.884   1.445  0.00  0.00    +0.000 A 
ATOM     11  C13 UNL     1       4.651  -0.058   0.550  0.00  0.00    +0.000 A 
ATOM     12  C14 UNL     1       3.811  -0.751  -0.277  0.00  0.00    +0.000 A 
ATOM     13  C15 UNL     1       2.433  -0.536  -0.257  0.00  0.00    +0.000 A 
ENDROOT
BRANCH   4  14
ATOM     14  C4  UNL     1      -2.037  -0.134  -0.491  0.00  0.00    +0.000 A 
ATOM     15  C5  UNL     1      -2.678   0.767   0.335  0.00  0.00    +0.000 A 
ATOM     16  C6  UNL     1      -4.068   0.919   0.289  0.00  0.00    +0.000 A 
ATOM     17  C7  UNL     1      -4.796   0.155  -0.594  0.00  0.00    +0.000 A 
ATOM     18  C8  UNL     1      -4.183  -0.741  -1.419  0.00  0.00    +0.000 A 
ATOM     19  C9  UNL     1      -2.792  -0.877  -1.357  0.00  0.00    +0.000 A 
ENDBRANCH   4  14
TORSDOF 1
