REMARK  Name = ./3D_structures\o66_MMV1782349_3D.pdb
REMARK  9 active torsions:
REMARK  status: ('A' for Active; 'I' for Inactive)
REMARK    1  A    between atoms: C1_1  and  C2_2
REMARK    2  A    between atoms: C4_4  and  C5_5
REMARK    3  A    between atoms: C5_5  and  C6_6
REMARK    4  A    between atoms: C6_6  and  O1_7
REMARK    5  A    between atoms: O1_7  and  C7_8
REMARK    6  A    between atoms: C8_9  and  C9_10
REMARK    7  A    between atoms: C11_12  and  C15_16
REMARK    8  A    between atoms: C13_14  and  C14_15
REMARK    9  A    between atoms: N3_19  and  C16_20
REMARK                            x       y       z     vdW  Elec       q    Type
REMARK                         _______ _______ _______ _____ _____    ______ ____
ROOT
ATOM      1  C7  UNL     1      -0.105  -0.700  -0.711  0.00  0.00    +0.000 A 
ATOM      2  C8  UNL     1      -1.029  -1.234  -1.596  0.00  0.00    +0.000 A 
ATOM      3  C9  UNL     1      -0.514  -1.933  -2.793  0.00  0.00    +0.000 C 
ATOM      4  C10 UNL     1      -2.370  -1.085  -1.317  0.00  0.00    +0.000 A 
ATOM      5  C11 UNL     1      -2.813  -0.429  -0.194  0.00  0.00    +0.000 A 
ATOM      6  C12 UNL     1      -1.863   0.087   0.660  0.00  0.00    +0.000 A 
ATOM      7  C13 UNL     1      -0.515  -0.038   0.420  0.00  0.00    +0.000 A 
ATOM      8  C14 UNL     1       0.438   0.542   1.383  0.00  0.00    +0.000 C 
ENDROOT
BRANCH   5   9
ATOM      9  C15 UNL     1      -4.219  -0.261   0.119  0.00  0.00    +0.000 C 
ATOM     10  N1  UNL     1      -5.281  -0.708  -0.616  0.00  0.00    +0.000 NA
ATOM     11  N2  UNL     1      -6.394  -0.356   0.004  0.00  0.00    +0.000 NA
ATOM     12  N3  UNL     1      -6.096   0.303   1.114  0.00  0.00    +0.000 N 
ATOM     13  C16 UNL     1      -7.043   0.861   2.080  0.00  0.00    +0.000 C 
ATOM     14  N4  UNL     1      -4.791   0.350   1.167  0.00  0.00    +0.000 NA
ENDBRANCH   5   9
BRANCH   1  15
ATOM     15  O1  UNL     1       1.251  -0.843  -0.982  0.00  0.00    +0.000 OA
BRANCH  15  16
ATOM     16  C6  UNL     1       1.913   0.168  -1.755  0.00  0.00    +0.000 C 
BRANCH  16  17
ATOM     17  C5  UNL     1       3.371  -0.177  -1.933  0.00  0.00    +0.000 C 
BRANCH  17  21
ATOM     18  C1  UNL     1       5.913   0.907   2.344  0.00  0.00    +0.000 C 
ATOM     19  C2  UNL     1       5.166   0.188   1.278  0.00  0.00    +0.000 A 
ATOM     20  C3  UNL     1       4.679   0.734   0.098  0.00  0.00    +0.000 A 
ATOM     21  C4  UNL     1       4.046  -0.278  -0.613  0.00  0.00    +0.000 A 
ATOM     22  O2  UNL     1       4.167  -1.355   0.133  0.00  0.00    +0.000 OA
ATOM     23  N5  UNL     1       4.805  -1.112   1.219  0.00  0.00    +0.000 NA
ENDBRANCH  17  21
ENDBRANCH  16  17
ENDBRANCH  15  16
ENDBRANCH   1  15
TORSDOF 5
