REMARK  Name = ./3D_structures\o67_MMV1782355_3D.pdb
REMARK  2 active torsions:
REMARK  status: ('A' for Active; 'I' for Inactive)
REMARK    1  A    between atoms: C3_5  and  C4_6
REMARK    2  A    between atoms: C4_6  and  C5_7
REMARK                            x       y       z     vdW  Elec       q    Type
REMARK                         _______ _______ _______ _____ _____    ______ ____
ROOT
ATOM      1  N1  UNL     1      -3.120  -0.315  -2.331  0.00  0.00    +0.000 N 
ATOM      2  C1  UNL     1      -2.636  -0.196  -0.989  0.00  0.00    +0.000 A 
ATOM      3  N2  UNL     1      -1.429   0.334  -0.742  0.00  0.00    +0.000 NA
ATOM      4  C2  UNL     1      -1.024   0.429   0.534  0.00  0.00    +0.000 A 
ATOM      5  C3  UNL     1       0.144   0.926   1.088  0.00  0.00    +0.000 A 
ATOM      6  C10 UNL     1       0.010   0.773   2.449  0.00  0.00    +0.000 A 
ATOM      7  N4  UNL     1      -1.179   0.210   2.736  0.00  0.00    +0.000 N 
ATOM      8  C11 UNL     1      -1.837  -0.013   1.567  0.00  0.00    +0.000 A 
ATOM      9  C12 UNL     1      -3.065  -0.551   1.277  0.00  0.00    +0.000 A 
ATOM     10  O1  UNL     1      -3.793  -0.947   2.206  0.00  0.00    +0.000 OA
ATOM     11  N5  UNL     1      -3.445  -0.633  -0.008  0.00  0.00    +0.000 N 
ATOM     12  H1  UNL     1      -3.403  -1.260  -2.652  0.00  0.00    +0.000 HD
ATOM     13  H2  UNL     1      -3.153   0.554  -2.885  0.00  0.00    +0.000 HD
ATOM     14  H10 UNL     1      -1.575  -0.035   3.663  0.00  0.00    +0.000 HD
ATOM     15  H11 UNL     1      -4.378  -1.043  -0.215  0.00  0.00    +0.000 HD
ENDROOT
BRANCH   5  16
ATOM     16  C4  UNL     1       1.324   1.500   0.367  0.00  0.00    +0.000 C 
BRANCH  16  17
ATOM     17  C5  UNL     1       2.167   0.422  -0.213  0.00  0.00    +0.000 A 
ATOM     18  C6  UNL     1       1.884  -0.107  -1.453  0.00  0.00    +0.000 A 
ATOM     19  C7  UNL     1       2.677  -1.124  -1.995  0.00  0.00    +0.000 A 
ATOM     20  C8  UNL     1       3.747  -1.600  -1.288  0.00  0.00    +0.000 A 
ATOM     21  N3  UNL     1       4.007  -1.074  -0.083  0.00  0.00    +0.000 NA
ATOM     22  C9  UNL     1       3.256  -0.090   0.465  0.00  0.00    +0.000 A 
ENDBRANCH  16  17
ENDBRANCH   5  16
TORSDOF 2
