REMARK  Name = ./3D_structures\o6_MMV1782098_3D.pdb
REMARK  9 active torsions:
REMARK  status: ('A' for Active; 'I' for Inactive)
REMARK    1  A    between atoms: O1_1  and  C1_2
REMARK    2  A    between atoms: C2_3  and  O2_4
REMARK    3  A    between atoms: C3_5  and  C10_14
REMARK    4  A    between atoms: N1_6  and  C4_7
REMARK    5  A    between atoms: C4_7  and  C5_8
REMARK    6  A    between atoms: C5_8  and  C6_9
REMARK    7  A    between atoms: C6_9  and  C7_10
REMARK    8  A    between atoms: C9_12  and  O3_13
REMARK    9  A    between atoms: C10_14  and  O4_15
REMARK                            x       y       z     vdW  Elec       q    Type
REMARK                         _______ _______ _______ _____ _____    ______ ____
ROOT
ATOM      1  C1  UNL     1      -2.198   1.235   0.561  0.00  0.00    +0.000 C 
ATOM      2  C2  UNL     1      -2.393  -0.268   0.567  0.00  0.00    +0.000 C 
ATOM      3  C3  UNL     1      -0.987  -0.862   0.468  0.00  0.00    +0.000 C 
ATOM      4  N1  UNL     1      -0.110  -0.053  -0.289  0.00  0.00    +0.000 NA
ATOM      5  C8  UNL     1      -0.634   0.764  -1.271  0.00  0.00    +0.000 C 
ATOM      6  C9  UNL     1      -1.825   1.614  -0.848  0.00  0.00    +0.000 C 
ENDROOT
BRANCH   1   7
ATOM      7  O1  UNL     1      -3.351   1.864   0.990  0.00  0.00    +0.000 OA
ATOM      8  H1  UNL     1      -4.054   1.215   1.234  0.00  0.00    +0.000 HD
ENDBRANCH   1   7
BRANCH   2   9
ATOM      9  O2  UNL     1      -2.953  -0.621   1.787  0.00  0.00    +0.000 OA
ATOM     10  H4  UNL     1      -2.252  -0.455   2.485  0.00  0.00    +0.000 HD
ENDBRANCH   2   9
BRANCH   6  11
ATOM     11  O3  UNL     1      -1.526   2.972  -0.906  0.00  0.00    +0.000 OA
ATOM     12  H18 UNL     1      -0.580   3.184  -0.831  0.00  0.00    +0.000 HD
ENDBRANCH   6  11
BRANCH   4  13
ATOM     13  C4  UNL     1       1.218  -0.356  -0.104  0.00  0.00    +0.000 C 
BRANCH  13  14
ATOM     14  C5  UNL     1       2.270   0.450  -0.770  0.00  0.00    +0.000 C 
BRANCH  14  15
ATOM     15  C6  UNL     1       3.656  -0.070  -0.427  0.00  0.00    +0.000 C 
ATOM     16  C7  UNL     1       3.888  -0.013   1.064  0.00  0.00    +0.000 C 
ENDBRANCH  14  15
ENDBRANCH  13  14
ENDBRANCH   4  13
BRANCH   3  17
ATOM     17  C10 UNL     1      -1.089  -2.303   0.011  0.00  0.00    +0.000 C 
BRANCH  17  18
ATOM     18  O4  UNL     1      -1.542  -2.443  -1.286  0.00  0.00    +0.000 OA
ATOM     19  H21 UNL     1      -2.455  -2.844  -1.281  0.00  0.00    +0.000 HD
ENDBRANCH  17  18
ENDBRANCH   3  17
TORSDOF 8
