REMARK  Name = ./3D_structures\o71_MMV1782412_3D.pdb
REMARK  7 active torsions:
REMARK  status: ('A' for Active; 'I' for Inactive)
REMARK    1  A    between atoms: C1_2  and  C2_4
REMARK    2  A    between atoms: C2_4  and  C3_5
REMARK    3  A    between atoms: C2_4  and  C18_22
REMARK    4  A    between atoms: C2_4  and  C24_28
REMARK    5  A    between atoms: N2_9  and  C7_10
REMARK    6  A    between atoms: C7_10  and  C8_11
REMARK    7  A    between atoms: C8_11  and  C9_12
REMARK                            x       y       z     vdW  Elec       q    Type
REMARK                         _______ _______ _______ _____ _____    ______ ____
ROOT
ATOM      1  C2  UNL     1      -2.744   0.197  -0.299  0.00  0.00    +0.000 C 
ENDROOT
BRANCH   1   2
ATOM      2  C3  UNL     1      -1.599  -0.744  -0.233  0.00  0.00    +0.000 C 
ATOM      3  C4  UNL     1      -1.577  -1.806  -1.312  0.00  0.00    +0.000 C 
ATOM      4  C5  UNL     1      -0.566  -2.889  -0.890  0.00  0.00    +0.000 C 
ATOM      5  C6  UNL     1       0.771  -2.186  -0.799  0.00  0.00    +0.000 C 
ATOM      6  N2  UNL     1       0.690  -1.245   0.304  0.00  0.00    +0.000 NA
ATOM      7  C17 UNL     1      -0.219  -0.191  -0.136  0.00  0.00    +0.000 C 
BRANCH   6   8
ATOM      8  C7  UNL     1       2.006  -0.715   0.532  0.00  0.00    +0.000 C 
BRANCH   8   9
ATOM      9  C8  UNL     1       2.551   0.164  -0.535  0.00  0.00    +0.000 C 
BRANCH   9  10
ATOM     10  C9  UNL     1       3.928   0.578  -0.083  0.00  0.00    +0.000 A 
ATOM     11  C10 UNL     1       4.100   1.718   0.669  0.00  0.00    +0.000 A 
ATOM     12  C11 UNL     1       5.336   2.113   1.091  0.00  0.00    +0.000 A 
ATOM     13  C12 UNL     1       6.461   1.356   0.762  0.00  0.00    +0.000 A 
ATOM     14  O2  UNL     1       7.802   1.530   1.058  0.00  0.00    +0.000 OA
ATOM     15  C13 UNL     1       8.553   0.415   0.622  0.00  0.00    +0.000 C 
ATOM     16  C14 UNL     1       7.623  -0.413  -0.207  0.00  0.00    +0.000 C 
ATOM     17  C15 UNL     1       6.314   0.217   0.015  0.00  0.00    +0.000 A 
ATOM     18  C16 UNL     1       5.048  -0.169  -0.406  0.00  0.00    +0.000 A 
ENDBRANCH   9  10
ENDBRANCH   8   9
ENDBRANCH   6   8
ENDBRANCH   1   2
BRANCH   1  19
ATOM     19  C18 UNL     1      -2.809   1.223   0.724  0.00  0.00    +0.000 A 
ATOM     20  C19 UNL     1      -3.327   2.488   0.600  0.00  0.00    +0.000 A 
ATOM     21  C20 UNL     1      -3.351   3.409   1.639  0.00  0.00    +0.000 A 
ATOM     22  C21 UNL     1      -2.840   3.080   2.875  0.00  0.00    +0.000 A 
ATOM     23  C22 UNL     1      -2.319   1.838   3.037  0.00  0.00    +0.000 A 
ATOM     24  C23 UNL     1      -2.306   0.956   2.009  0.00  0.00    +0.000 A 
ENDBRANCH   1  19
BRANCH   1  25
ATOM     25  C24 UNL     1      -4.029  -0.605  -0.387  0.00  0.00    +0.000 A 
ATOM     26  C25 UNL     1      -4.716  -1.012   0.717  0.00  0.00    +0.000 A 
ATOM     27  C26 UNL     1      -5.880  -1.755   0.619  0.00  0.00    +0.000 A 
ATOM     28  C27 UNL     1      -6.379  -2.106  -0.619  0.00  0.00    +0.000 A 
ATOM     29  C28 UNL     1      -5.706  -1.708  -1.739  0.00  0.00    +0.000 A 
ATOM     30  C29 UNL     1      -4.537  -0.962  -1.617  0.00  0.00    +0.000 A 
ENDBRANCH   1  25
BRANCH   1  32
ATOM     31  N1  UNL     1      -3.702   1.647  -2.205  0.00  0.00    +0.000 N 
ATOM     32  C1  UNL     1      -2.662   0.877  -1.623  0.00  0.00    +0.000 C 
ATOM     33  O1  UNL     1      -1.616   0.815  -2.361  0.00  0.00    +0.000 OA
ATOM     34  H1  UNL     1      -4.727   1.490  -2.004  0.00  0.00    +0.000 HD
ATOM     35  H2  UNL     1      -3.513   2.432  -2.879  0.00  0.00    +0.000 HD
ENDBRANCH   1  32
TORSDOF 7
