REMARK  Name = ./3D_structures\o72_MMV1613563_3D.pdb
REMARK  7 active torsions:
REMARK  status: ('A' for Active; 'I' for Inactive)
REMARK    1  A    between atoms: C1_1  and  O1_2
REMARK    2  A    between atoms: O1_2  and  C2_3
REMARK    3  A    between atoms: C4_5  and  C5_6
REMARK    4  A    between atoms: C5_6  and  C6_7
REMARK    5  A    between atoms: C13_18  and  C17_24
REMARK    6  A    between atoms: C15_21  and  O3_22
REMARK    7  A    between atoms: O3_22  and  C16_23
REMARK                            x       y       z     vdW  Elec       q    Type
REMARK                         _______ _______ _______ _____ _____    ______ ____
ROOT
ATOM      1  C2  UNL     1      -1.140   2.304   0.038  0.00  0.00    +0.000 A 
ATOM      2  C3  UNL     1       0.147   2.025   0.445  0.00  0.00    +0.000 A 
ATOM      3  C4  UNL     1       0.642   0.713   0.550  0.00  0.00    +0.000 A 
ATOM      4  C10 UNL     1      -0.255  -0.273   0.223  0.00  0.00    +0.000 A 
ATOM      5  C11 UNL     1       0.107  -1.677   0.367  0.00  0.00    +0.000 C 
ATOM      6  C12 UNL     1      -0.782  -2.616   0.111  0.00  0.00    +0.000 C 
ATOM      7  C13 UNL     1      -2.165  -2.373  -0.324  0.00  0.00    +0.000 C 
ATOM      8  O2  UNL     1      -2.442  -1.014  -0.522  0.00  0.00    +0.000 OA
ATOM      9  C14 UNL     1      -1.564   0.016  -0.192  0.00  0.00    +0.000 A 
ATOM     10  C15 UNL     1      -2.025   1.312  -0.291  0.00  0.00    +0.000 A 
ENDROOT
BRANCH   7  11
ATOM     11  C17 UNL     1      -3.161  -2.905   0.724  0.00  0.00    +0.000 C 
ATOM     12  C18 UNL     1      -3.043  -4.403   1.010  0.00  0.00    +0.000 C 
ATOM     13  C19 UNL     1      -2.620  -3.379   2.003  0.00  0.00    +0.000 C 
ENDBRANCH   7  11
BRANCH   1  15
ATOM     14  C1  UNL     1      -0.768   4.710   0.276  0.00  0.00    +0.000 C 
ATOM     15  O1  UNL     1      -1.580   3.621  -0.049  0.00  0.00    +0.000 OA
ENDBRANCH   1  15
BRANCH  10  16
ATOM     16  O3  UNL     1      -3.329   1.571  -0.705  0.00  0.00    +0.000 OA
ATOM     17  C16 UNL     1      -4.350   1.649   0.269  0.00  0.00    +0.000 C 
ENDBRANCH  10  16
BRANCH   3  18
ATOM     18  C5  UNL     1       2.041   0.472   0.936  0.00  0.00    +0.000 C 
BRANCH  18  19
ATOM     19  C6  UNL     1       2.998   0.180  -0.120  0.00  0.00    +0.000 A 
ATOM     20  C7  UNL     1       3.558  -1.067  -0.248  0.00  0.00    +0.000 A 
ATOM     21  N1  UNL     1       4.464  -1.297  -1.224  0.00  0.00    +0.000 NA
ATOM     22  C8  UNL     1       4.862  -0.360  -2.098  0.00  0.00    +0.000 A 
ATOM     23  N2  UNL     1       5.818  -0.660  -3.102  0.00  0.00    +0.000 N 
ATOM     24  N3  UNL     1       4.320   0.861  -1.976  0.00  0.00    +0.000 NA
ATOM     25  C9  UNL     1       3.402   1.165  -1.018  0.00  0.00    +0.000 A 
ATOM     26  N4  UNL     1       2.867   2.456  -0.895  0.00  0.00    +0.000 N 
ATOM     27  H8  UNL     1       6.009  -1.637  -3.398  0.00  0.00    +0.000 HD
ATOM     28  H9  UNL     1       6.341   0.105  -3.553  0.00  0.00    +0.000 HD
ATOM     29  H10 UNL     1       3.066   3.007  -0.044  0.00  0.00    +0.000 HD
ATOM     30  H11 UNL     1       2.282   2.861  -1.638  0.00  0.00    +0.000 HD
ENDBRANCH  18  19
ENDBRANCH   3  18
TORSDOF 5
