REMARK  Name = ./3D_structures\o73_MMV1580843_3D.pdb
REMARK  6 active torsions:
REMARK  status: ('A' for Active; 'I' for Inactive)
REMARK    1  A    between atoms: C1_1  and  SI1_2
REMARK    2  A    between atoms: SI1_2  and  C2_3
REMARK    3  A    between atoms: N1_6  and  C5_7
REMARK    4  A    between atoms: C5_7  and  C6_8
REMARK    5  A    between atoms: C8_10  and  C9_11
REMARK    6  A    between atoms: N2_18  and  C15_20
REMARK                            x       y       z     vdW  Elec       q    Type
REMARK                         _______ _______ _______ _____ _____    ______ ____
ROOT
ATOM      1  C6  UNL     1       0.095  -0.821  -0.473  0.00  0.00    +0.000 A 
ATOM      2  C7  UNL     1      -0.929  -1.705  -0.585  0.00  0.00    +0.000 A 
ATOM      3  C8  UNL     1      -2.104  -1.087  -0.121  0.00  0.00    +0.000 A 
ATOM      4  N2  UNL     1      -1.742   0.143   0.253  0.00  0.00    +0.000 N 
ATOM      5  N3  UNL     1      -0.411   0.286   0.033  0.00  0.00    +0.000 NA
ENDROOT
BRANCH   3   6
ATOM      6  C9  UNL     1      -3.398  -1.758  -0.101  0.00  0.00    +0.000 A 
ATOM      7  C10 UNL     1      -3.489  -3.055  -0.555  0.00  0.00    +0.000 A 
ATOM      8  C11 UNL     1      -4.695  -3.714  -0.549  0.00  0.00    +0.000 A 
ATOM      9  C12 UNL     1      -5.851  -3.134  -0.102  0.00  0.00    +0.000 A 
ATOM     10 CL1  UNL     1      -7.385  -4.014  -0.109  0.00  0.00    +0.000 Cl
ATOM     11  C13 UNL     1      -5.768  -1.844   0.351  0.00  0.00    +0.000 A 
ATOM     12  C14 UNL     1      -4.541  -1.164   0.348  0.00  0.00    +0.000 A 
ENDBRANCH   3   6
BRANCH   4  13
ATOM     13  C15 UNL     1      -2.544   1.185   0.795  0.00  0.00    +0.000 A 
ATOM     14  C16 UNL     1      -3.157   2.114  -0.015  0.00  0.00    +0.000 A 
ATOM     15  C17 UNL     1      -3.918   3.155   0.508  0.00  0.00    +0.000 A 
ATOM     16  C18 UNL     1      -4.045   3.232   1.879  0.00  0.00    +0.000 A 
ATOM     17 CL2  UNL     1      -4.996   4.524   2.628  0.00  0.00    +0.000 Cl
ATOM     18  C19 UNL     1      -3.448   2.322   2.731  0.00  0.00    +0.000 A 
ATOM     19  C20 UNL     1      -2.700   1.305   2.158  0.00  0.00    +0.000 A 
ENDBRANCH   4  13
BRANCH   1  20
ATOM     20  C5  UNL     1       1.537  -0.994  -0.830  0.00  0.00    +0.000 C 
BRANCH  20  26
ATOM     21  C1  UNL     1       5.390  -1.276  -0.656  0.00  0.00    +0.000 C 
ATOM     22 SI1  UNL     1       4.874   0.424  -0.096  0.00  0.00    +0.000 Si
ATOM     23  C2  UNL     1       6.361   1.360   0.474  0.00  0.00    +0.000 C 
ATOM     24  C3  UNL     1       3.684   0.263   1.329  0.00  0.00    +0.000 C 
ATOM     25  C4  UNL     1       2.305   0.643   0.769  0.00  0.00    +0.000 C 
ATOM     26  N1  UNL     1       2.254   0.162  -0.543  0.00  0.00    +0.000 NA
ATOM     27  C21 UNL     1       2.590   1.042  -1.597  0.00  0.00    +0.000 C 
ATOM     28  C22 UNL     1       4.085   1.322  -1.539  0.00  0.00    +0.000 C 
ENDBRANCH  20  26
ENDBRANCH   1  20
TORSDOF 4
