REMARK  Name = ./3D_structures\o75_MMV1613559_3D.pdb
REMARK  16 active torsions:
REMARK  status: ('A' for Active; 'I' for Inactive)
REMARK    1  A    between atoms: C1_1  and  C2_2
REMARK    2  A    between atoms: C2_2  and  C3_3
REMARK    3  A    between atoms: C5_5  and  C6_6
REMARK    4  A    between atoms: N1_8  and  C7_9
REMARK    5  A    between atoms: C7_9  and  C16_22
REMARK    6  A    between atoms: C8_10  and  C9_11
REMARK    7  A    between atoms: C9_11  and  C10_12
REMARK    8  A    between atoms: C10_12  and  C11_13
REMARK    9  A    between atoms: C11_13  and  C12_14
REMARK   10  A    between atoms: C12_14  and  S1_15
REMARK   11  A    between atoms: S1_15  and  C13_16
REMARK   12  A    between atoms: C13_16  and  C14_17
REMARK   13  A    between atoms: C14_17  and  N2_18
REMARK   14  A    between atoms: C14_17  and  C15_19
REMARK   15  A    between atoms: C15_19  and  O2_20
REMARK   16  A    between atoms: C16_22  and  O4_23
REMARK                            x       y       z     vdW  Elec       q    Type
REMARK                         _______ _______ _______ _____ _____    ______ ____
ROOT
ATOM      1  C7  UNL     1      -1.631   0.788  -2.544  0.00  0.00    +0.000 C 
ATOM      2  C8  UNL     1      -0.385   0.984  -2.138  0.00  0.00    +0.000 C 
ENDROOT
BRANCH   1   5
ATOM      3  C6  UNL     1      -3.285  -0.735  -1.629  0.00  0.00    +0.000 C 
ATOM      4  O1  UNL     1      -2.962  -1.478  -2.619  0.00  0.00    +0.000 OA
ATOM      5  N1  UNL     1      -2.597   0.501  -1.536  0.00  0.00    +0.000 N 
ATOM      6  H10 UNL     1      -2.803   1.158  -0.760  0.00  0.00    +0.000 HD
BRANCH   3  11
ATOM      7  C1  UNL     1      -3.758   0.169   1.431  0.00  0.00    +0.000 C 
ATOM      8  C2  UNL     1      -4.495  -0.883   0.681  0.00  0.00    +0.000 C 
ATOM      9  C3  UNL     1      -5.079  -1.988   1.582  0.00  0.00    +0.000 C 
ATOM     10  C4  UNL     1      -5.472  -0.306  -0.344  0.00  0.00    +0.000 C 
ATOM     11  C5  UNL     1      -4.312  -1.233  -0.720  0.00  0.00    +0.000 C 
ENDBRANCH   3  11
ENDBRANCH   1   5
BRANCH   1  12
ATOM     12  C16 UNL     1      -2.003   0.862  -3.952  0.00  0.00    +0.000 C 
ATOM     13  O5  UNL     1      -3.189   0.669  -4.264  0.00  0.00    +0.000 OA
BRANCH  12  14
ATOM     14  O4  UNL     1      -1.059   1.139  -4.898  0.00  0.00    +0.000 OA
ATOM     15  H26 UNL     1      -1.356   1.412  -5.831  0.00  0.00    +0.000 HD
ENDBRANCH  12  14
ENDBRANCH   1  12
BRANCH   2  16
ATOM     16  C9  UNL     1      -0.068   0.899  -0.715  0.00  0.00    +0.000 C 
BRANCH  16  17
ATOM     17  C10 UNL     1       0.946  -0.172  -0.383  0.00  0.00    +0.000 C 
BRANCH  17  18
ATOM     18  C11 UNL     1       1.186  -0.159   1.110  0.00  0.00    +0.000 C 
BRANCH  18  19
ATOM     19  C12 UNL     1       1.710   1.146   1.617  0.00  0.00    +0.000 C 
BRANCH  19  20
ATOM     20  S1  UNL     1       3.304   1.489   0.781  0.00  0.00    +0.000 S 
BRANCH  20  21
ATOM     21  C13 UNL     1       4.471   0.241   1.337  0.00  0.00    +0.000 C 
BRANCH  21  22
ATOM     22  C14 UNL     1       5.841   0.394   0.726  0.00  0.00    +0.000 C 
BRANCH  22  23
ATOM     23  N2  UNL     1       6.361   1.679   1.084  0.00  0.00    +0.000 NA
ATOM     24  H23 UNL     1       7.293   1.881   0.658  0.00  0.00    +0.000 HD
ATOM     25  H24 UNL     1       6.445   1.704   2.139  0.00  0.00    +0.000 HD
ENDBRANCH  22  23
BRANCH  22  26
ATOM     26  C15 UNL     1       6.695  -0.713   1.220  0.00  0.00    +0.000 C 
ATOM     27  O3  UNL     1       7.737  -0.460   1.871  0.00  0.00    +0.000 OA
BRANCH  26  28
ATOM     28  O2  UNL     1       6.363  -2.027   0.977  0.00  0.00    +0.000 OA
ATOM     29  H25 UNL     1       7.056  -2.791   0.964  0.00  0.00    +0.000 HD
ENDBRANCH  26  28
ENDBRANCH  22  26
ENDBRANCH  21  22
ENDBRANCH  20  21
ENDBRANCH  19  20
ENDBRANCH  18  19
ENDBRANCH  17  18
ENDBRANCH  16  17
ENDBRANCH   2  16
TORSDOF 14
