REMARK  Name = ./3D_structures\o76_MMV1634361_3D.pdb
REMARK  3 active torsions:
REMARK  status: ('A' for Active; 'I' for Inactive)
REMARK    1  A    between atoms: C1_2  and  O2_3
REMARK    2  A    between atoms: C1_2  and  C2_4
REMARK    3  A    between atoms: C3_5  and  N1_6
REMARK                            x       y       z     vdW  Elec       q    Type
REMARK                         _______ _______ _______ _____ _____    ______ ____
ROOT
ATOM      1  C2  UNL     1       0.493   0.055   0.813  0.00  0.00    +0.000 C 
ATOM      2  C3  UNL     1      -0.531   0.858   0.086  0.00  0.00    +0.000 C 
ATOM      3  C4  UNL     1      -1.274  -0.121  -0.814  0.00  0.00    +0.000 C 
ATOM      4  C5  UNL     1      -1.310  -1.358   0.051  0.00  0.00    +0.000 C 
ATOM      5  C6  UNL     1       0.049  -1.392   0.706  0.00  0.00    +0.000 C 
ENDROOT
BRANCH   2   6
ATOM      6  N1  UNL     1      -0.013   1.977  -0.639  0.00  0.00    +0.000 NA
ATOM      7  H4  UNL     1      -0.106   2.858  -0.050  0.00  0.00    +0.000 HD
ATOM      8  H5  UNL     1      -0.580   2.174  -1.517  0.00  0.00    +0.000 HD
ENDBRANCH   2   6
BRANCH   1  10
ATOM      9  O1  UNL     1       2.768   0.696   1.139  0.00  0.00    +0.000 OA
ATOM     10  C1  UNL     1       1.870   0.268   0.363  0.00  0.00    +0.000 C 
BRANCH  10  11
ATOM     11  O2  UNL     1       2.261   0.008  -0.946  0.00  0.00    +0.000 OA
ATOM     12  H1  UNL     1       3.242  -0.193  -1.191  0.00  0.00    +0.000 HD
ENDBRANCH  10  11
ENDBRANCH   1  10
TORSDOF 3
