REMARK  Name = ./3D_structures\o78_MMV1580483_3D.pdb
REMARK  10 active torsions:
REMARK  status: ('A' for Active; 'I' for Inactive)
REMARK    1  A    between atoms: N1_3  and  C22_29
REMARK    2  A    between atoms: N2_6  and  C4_7
REMARK    3  A    between atoms: C9_13  and  C12_16
REMARK    4  A    between atoms: C14_19  and  O2_20
REMARK    5  A    between atoms: O2_20  and  C15_21
REMARK    6  A    between atoms: C15_21  and  C16_22
REMARK    7  A    between atoms: C16_22  and  C17_23
REMARK    8  A    between atoms: C17_23  and  N5_24
REMARK    9  A    between atoms: N5_24  and  C18_25
REMARK   10  A    between atoms: N5_24  and  C19_26
REMARK                            x       y       z     vdW  Elec       q    Type
REMARK                         _______ _______ _______ _____ _____    ______ ____
ROOT
ATOM      1  O1  UNL     1      -5.281   2.615   0.968  0.00  0.00    +0.000 OA
ATOM      2  C1  UNL     1      -4.548   2.008   1.769  0.00  0.00    +0.000 A 
ATOM      3  N1  UNL     1      -3.480   1.239   1.441  0.00  0.00    +0.000 N 
ATOM      4  C2  UNL     1      -2.978   0.794   2.594  0.00  0.00    +0.000 A 
ATOM      5  C3  UNL     1      -3.760   1.297   3.639  0.00  0.00    +0.000 A 
ATOM      6  N2  UNL     1      -4.731   2.051   3.093  0.00  0.00    +0.000 N 
ATOM      7  C4  UNL     1      -5.761   2.758   3.831  0.00  0.00    +0.000 C 
ATOM      8  C5  UNL     1      -3.445   0.962   4.932  0.00  0.00    +0.000 A 
ATOM      9  N3  UNL     1      -2.415   0.175   5.236  0.00  0.00    +0.000 NA
ATOM     10  C6  UNL     1      -1.657  -0.305   4.245  0.00  0.00    +0.000 A 
ATOM     11  C7  UNL     1      -0.554  -1.104   4.545  0.00  0.00    +0.000 A 
ATOM     12  C8  UNL     1       0.268  -1.591   3.565  0.00  0.00    +0.000 A 
ATOM     13  C9  UNL     1       0.050  -1.320   2.237  0.00  0.00    +0.000 A 
ATOM     14  C10 UNL     1      -1.056  -0.520   1.927  0.00  0.00    +0.000 A 
ATOM     15  C11 UNL     1      -1.889  -0.029   2.899  0.00  0.00    +0.000 A 
ENDROOT
BRANCH  13  16
ATOM     16  C12 UNL     1       0.906  -1.830   1.175  0.00  0.00    +0.000 A 
ATOM     17  C13 UNL     1       1.133  -1.140   0.002  0.00  0.00    +0.000 A 
ATOM     18  N4  UNL     1       1.917  -1.626  -0.974  0.00  0.00    +0.000 NA
ATOM     19  C14 UNL     1       2.547  -2.824  -0.898  0.00  0.00    +0.000 A 
ATOM     20  C20 UNL     1       2.326  -3.537   0.288  0.00  0.00    +0.000 A 
ATOM     21  C21 UNL     1       1.526  -3.051   1.295  0.00  0.00    +0.000 A 
BRANCH  19  22
ATOM     22  O2  UNL     1       3.301  -3.250  -1.903  0.00  0.00    +0.000 OA
BRANCH  22  23
ATOM     23  C15 UNL     1       3.820  -3.047  -3.086  0.00  0.00    +0.000 C 
BRANCH  23  24
ATOM     24  C16 UNL     1       4.775  -1.910  -3.264  0.00  0.00    +0.000 C 
BRANCH  24  25
ATOM     25  C17 UNL     1       4.202  -0.584  -2.923  0.00  0.00    +0.000 C 
BRANCH  25  26
ATOM     26  N5  UNL     1       5.134   0.509  -3.207  0.00  0.00    +0.000 NA
ATOM     27  C18 UNL     1       6.283   0.509  -2.326  0.00  0.00    +0.000 C 
ATOM     28  C19 UNL     1       5.537   0.457  -4.602  0.00  0.00    +0.000 C 
ENDBRANCH  25  26
ENDBRANCH  24  25
ENDBRANCH  23  24
ENDBRANCH  22  23
ENDBRANCH  19  22
ENDBRANCH  13  16
BRANCH   3  29
ATOM     29  C22 UNL     1      -3.075   0.939   0.103  0.00  0.00    +0.000 C 
ATOM     30  C23 UNL     1      -2.122   1.935  -0.464  0.00  0.00    +0.000 C 
ATOM     31  C24 UNL     1      -1.926   1.716  -1.943  0.00  0.00    +0.000 C 
ATOM     32  O3  UNL     1      -3.105   1.784  -2.643  0.00  0.00    +0.000 OA
ATOM     33  C25 UNL     1      -4.226   2.061  -1.843  0.00  0.00    +0.000 C 
ATOM     34  C26 UNL     1      -4.312   0.977  -0.829  0.00  0.00    +0.000 C 
ENDBRANCH   3  29
TORSDOF 7
