REMARK  Name = ./3D_structures\o79_MMV1782209_3D.pdb
REMARK  13 active torsions:
REMARK  status: ('A' for Active; 'I' for Inactive)
REMARK    1  A    between atoms: C1_1  and  O1_2
REMARK    2  A    between atoms: O1_2  and  C2_3
REMARK    3  A    between atoms: C5_6  and  C26_33
REMARK    4  A    between atoms: C7_8  and  N1_9
REMARK    5  A    between atoms: C8_10  and  C9_12
REMARK    6  A    between atoms: C9_12  and  C10_14
REMARK    7  A    between atoms: C13_17  and  O4_18
REMARK    8  A    between atoms: O4_18  and  C14_19
REMARK    9  A    between atoms: C14_19  and  C15_20
REMARK   10  A    between atoms: C15_20  and  N2_21
REMARK   11  A    between atoms: C26_33  and  C27_34
REMARK   12  A    between atoms: C26_33  and  C28_35
REMARK   13  A    between atoms: C26_33  and  C29_36
REMARK                            x       y       z     vdW  Elec       q    Type
REMARK                         _______ _______ _______ _____ _____    ______ ____
ROOT
ATOM      1  C10 UNL     1       0.585  -0.035   0.826  0.00  0.00    +0.000 A 
ATOM      2  C11 UNL     1       1.396  -0.975   1.589  0.00  0.00    +0.000 A 
ATOM      3  C12 UNL     1       2.717  -1.114   1.360  0.00  0.00    +0.000 A 
ATOM      4  C13 UNL     1       3.354  -0.376   0.393  0.00  0.00    +0.000 A 
ATOM      5  C20 UNL     1       2.630   0.511  -0.325  0.00  0.00    +0.000 A 
ATOM      6  C21 UNL     1       3.258   1.291  -1.284  0.00  0.00    +0.000 A 
ATOM      7  C22 UNL     1       2.567   2.227  -2.018  0.00  0.00    +0.000 A 
ATOM      8  C23 UNL     1       1.217   2.408  -1.804  0.00  0.00    +0.000 A 
ATOM      9  C24 UNL     1       0.572   1.649  -0.863  0.00  0.00    +0.000 A 
ATOM     10  C25 UNL     1       1.246   0.703  -0.129  0.00  0.00    +0.000 A 
ENDROOT
BRANCH   1  11
ATOM     11  C9  UNL     1      -0.790  -0.131   1.071  0.00  0.00    +0.000 C 
ATOM     12  O3  UNL     1      -0.971  -0.481   2.391  0.00  0.00    +0.000 OA
BRANCH  11  14
ATOM     13  N1  UNL     1      -3.189  -0.765   0.953  0.00  0.00    +0.000 N 
ATOM     14  C8  UNL     1      -2.053  -0.013   0.418  0.00  0.00    +0.000 C 
ATOM     15  O2  UNL     1      -2.361   0.641  -0.575  0.00  0.00    +0.000 OA
ATOM     16  H7  UNL     1      -2.902  -1.412   1.765  0.00  0.00    +0.000 HD
BRANCH  13  22
ATOM     17  C2  UNL     1      -5.256  -1.959   0.814  0.00  0.00    +0.000 A 
ATOM     18  C3  UNL     1      -6.598  -1.988   0.593  0.00  0.00    +0.000 A 
ATOM     19  C4  UNL     1      -7.279  -0.865   0.094  0.00  0.00    +0.000 A 
ATOM     20  C5  UNL     1      -6.586   0.305  -0.179  0.00  0.00    +0.000 A 
ATOM     21  C6  UNL     1      -5.209   0.303   0.056  0.00  0.00    +0.000 A 
ATOM     22  C7  UNL     1      -4.518  -0.773   0.539  0.00  0.00    +0.000 A 
BRANCH  20  23
ATOM     23  C26 UNL     1      -7.286   1.536  -0.628  0.00  0.00    +0.000 C 
ATOM     24  C27 UNL     1      -7.813   1.397  -2.018  0.00  0.00    +0.000 C 
ATOM     25  C28 UNL     1      -6.428   2.775  -0.500  0.00  0.00    +0.000 C 
ATOM     26  C29 UNL     1      -8.472   1.800   0.338  0.00  0.00    +0.000 C 
ENDBRANCH  20  23
BRANCH  17  28
ATOM     27  C1  UNL     1      -5.204  -4.246   1.587  0.00  0.00    +0.000 C 
ATOM     28  O1  UNL     1      -4.513  -3.049   1.307  0.00  0.00    +0.000 OA
ENDBRANCH  17  28
ENDBRANCH  13  22
ENDBRANCH  11  14
ENDBRANCH   1  11
BRANCH   4  29
ATOM     29  O4  UNL     1       4.714  -0.588   0.206  0.00  0.00    +0.000 OA
BRANCH  29  30
ATOM     30  C14 UNL     1       5.384  -1.546   1.029  0.00  0.00    +0.000 C 
BRANCH  30  31
ATOM     31  C15 UNL     1       6.789  -1.744   0.665  0.00  0.00    +0.000 C 
BRANCH  31  32
ATOM     32  N2  UNL     1       7.618  -0.573   0.750  0.00  0.00    +0.000 NA
ATOM     33  C16 UNL     1       8.995  -0.945   0.426  0.00  0.00    +0.000 C 
ATOM     34  C17 UNL     1       9.892   0.167   0.051  0.00  0.00    +0.000 C 
ATOM     35  O5  UNL     1       9.323   0.958  -0.922  0.00  0.00    +0.000 OA
ATOM     36  C18 UNL     1       8.190   1.547  -0.389  0.00  0.00    +0.000 C 
ATOM     37  C19 UNL     1       7.145   0.553   0.017  0.00  0.00    +0.000 C 
ENDBRANCH  31  32
ENDBRANCH  30  31
ENDBRANCH  29  30
ENDBRANCH   4  29
TORSDOF 9
