REMARK  Name = ./3D_structures\o7_MMV1634397_3D.pdb
REMARK  8 active torsions:
REMARK  status: ('A' for Active; 'I' for Inactive)
REMARK    1  A    between atoms: C1_2  and  C10_13
REMARK    2  A    between atoms: N1_3  and  C2_4
REMARK    3  A    between atoms: C2_4  and  C3_5
REMARK    4  A    between atoms: C6_8  and  O2_9
REMARK    5  A    between atoms: O2_9  and  C7_10
REMARK    6  A    between atoms: N2_16  and  C13_17
REMARK    7  A    between atoms: C13_17  and  C14_18
REMARK    8  A    between atoms: C13_17  and  C24_28
REMARK                            x       y       z     vdW  Elec       q    Type
REMARK                         _______ _______ _______ _____ _____    ______ ____
ROOT
ATOM      1  C10 UNL     1       0.566   0.404  -0.896  0.00  0.00    +0.000 C 
ATOM      2  C11 UNL     1       0.452   0.350   0.601  0.00  0.00    +0.000 C 
ATOM      3  C12 UNL     1      -0.874   0.884   1.017  0.00  0.00    +0.000 C 
ATOM      4  N2  UNL     1      -2.010   0.443   0.308  0.00  0.00    +0.000 NA
ATOM      5  C25 UNL     1      -1.836   0.158  -1.086  0.00  0.00    +0.000 C 
ATOM      6  C26 UNL     1      -0.532  -0.498  -1.436  0.00  0.00    +0.000 C 
ENDROOT
BRANCH   1   8
ATOM      7  O1  UNL     1       2.541   0.921  -2.138  0.00  0.00    +0.000 OA
ATOM      8  C1  UNL     1       1.901   0.083  -1.414  0.00  0.00    +0.000 C 
ATOM      9  N1  UNL     1       2.577  -1.142  -1.166  0.00  0.00    +0.000 N 
ATOM     10  H1  UNL     1       2.027  -1.825  -0.561  0.00  0.00    +0.000 HD
BRANCH   9  11
ATOM     11  C2  UNL     1       3.890  -1.479  -1.667  0.00  0.00    +0.000 C 
BRANCH  11  12
ATOM     12  C3  UNL     1       5.002  -0.819  -0.961  0.00  0.00    +0.000 A 
ATOM     13  C4  UNL     1       5.593   0.324  -1.454  0.00  0.00    +0.000 A 
ATOM     14  C5  UNL     1       6.646   0.949  -0.779  0.00  0.00    +0.000 A 
ATOM     15  C6  UNL     1       7.132   0.441   0.406  0.00  0.00    +0.000 A 
ATOM     16  C8  UNL     1       6.550  -0.692   0.898  0.00  0.00    +0.000 A 
ATOM     17  C9  UNL     1       5.508  -1.309   0.230  0.00  0.00    +0.000 A 
BRANCH  15  18
ATOM     18  O2  UNL     1       8.178   1.106   1.027  0.00  0.00    +0.000 OA
ATOM     19  C7  UNL     1       8.776   0.721   2.223  0.00  0.00    +0.000 C 
ENDBRANCH  15  18
ENDBRANCH  11  12
ENDBRANCH   9  11
ENDBRANCH   1   8
BRANCH   4  20
ATOM     20  C13 UNL     1      -2.990  -0.254   0.996  0.00  0.00    +0.000 C 
ATOM     21  C24 UNL     1      -2.408  -1.557   1.522  0.00  0.00    +0.000 C 
BRANCH  20  22
ATOM     22  C14 UNL     1      -4.314  -0.480   0.502  0.00  0.00    +0.000 A 
ATOM     23  C15 UNL     1      -4.776  -1.776   0.382  0.00  0.00    +0.000 A 
ATOM     24  C16 UNL     1      -6.045  -2.028  -0.104  0.00  0.00    +0.000 A 
ATOM     25  C17 UNL     1      -6.901  -1.036  -0.486  0.00  0.00    +0.000 A 
ATOM     26  C18 UNL     1      -6.468   0.264  -0.376  0.00  0.00    +0.000 A 
ATOM     27  C19 UNL     1      -7.284   1.323  -0.742  0.00  0.00    +0.000 A 
ATOM     28  C20 UNL     1      -6.804   2.627  -0.611  0.00  0.00    +0.000 A 
ATOM     29  C21 UNL     1      -5.555   2.896  -0.133  0.00  0.00    +0.000 A 
ATOM     30  C22 UNL     1      -4.738   1.829   0.233  0.00  0.00    +0.000 A 
ATOM     31  C23 UNL     1      -5.185   0.539   0.114  0.00  0.00    +0.000 A 
ENDBRANCH  20  22
ENDBRANCH   4  20
TORSDOF 6
