REMARK  Name = ./3D_structures\o80_MMV003069_3D.pdb
REMARK  5 active torsions:
REMARK  status: ('A' for Active; 'I' for Inactive)
REMARK    1  A    between atoms: C1_1  and  C2_2
REMARK    2  A    between atoms: C15_17  and  O2_18
REMARK    3  A    between atoms: C18_21  and  C19_22
REMARK    4  A    between atoms: C23_26  and  C24_27
REMARK    5  A    between atoms: C26_29  and  C27_30
REMARK                            x       y       z     vdW  Elec       q    Type
REMARK                         _______ _______ _______ _____ _____    ______ ____
ROOT
ATOM      1  C1  UNL     1       6.527  -1.562   0.273  0.00  0.00    +0.000 C 
ATOM      2  C2  UNL     1       5.971  -0.664   1.347  0.00  0.00    +0.000 C 
ATOM      3  C3  UNL     1       6.153   0.789   1.046  0.00  0.00    +0.000 C 
ATOM      4  C4  UNL     1       5.075   1.362   0.156  0.00  0.00    +0.000 C 
ATOM      5  C5  UNL     1       3.744   0.694   0.337  0.00  0.00    +0.000 C 
ATOM      6  N1  UNL     1       3.710   0.208   1.726  0.00  0.00    +0.000 NA
ATOM      7  C6  UNL     1       4.546  -1.004   1.715  0.00  0.00    +0.000 C 
ATOM      8  O1  UNL     1       3.561  -0.398  -0.468  0.00  0.00    +0.000 OA
ATOM      9  C7  UNL     1       2.312  -0.418  -0.981  0.00  0.00    +0.000 C 
ATOM     10  C8  UNL     1       1.264  -1.040  -0.038  0.00  0.00    +0.000 C 
ATOM     11  C9  UNL     1       0.072  -0.544  -0.727  0.00  0.00    +0.000 C 
ATOM     12  C10 UNL     1      -1.256  -0.745  -0.180  0.00  0.00    +0.000 C 
ATOM     13  C11 UNL     1      -1.562  -2.144   0.309  0.00  0.00    +0.000 C 
ATOM     14  C12 UNL     1      -2.932  -2.030   0.945  0.00  0.00    +0.000 C 
ATOM     15  C13 UNL     1      -3.936  -1.679  -0.117  0.00  0.00    +0.000 C 
ATOM     16  C14 UNL     1      -5.283  -1.548   0.516  0.00  0.00    +0.000 C 
ATOM     17  C15 UNL     1      -6.377  -1.184  -0.421  0.00  0.00    +0.000 C 
ATOM     18  C16 UNL     1      -6.012  -0.205  -1.479  0.00  0.00    +0.000 C 
ATOM     19  C17 UNL     1      -4.596  -0.303  -1.960  0.00  0.00    +0.000 C 
ATOM     20  C18 UNL     1      -3.609  -0.350  -0.795  0.00  0.00    +0.000 C 
ATOM     21  C19 UNL     1      -3.874   0.810   0.105  0.00  0.00    +0.000 C 
ATOM     22  C20 UNL     1      -2.209  -0.412  -1.340  0.00  0.00    +0.000 C 
ATOM     23  C21 UNL     1      -1.800   0.709  -2.184  0.00  0.00    +0.000 C 
ATOM     24  C22 UNL     1      -0.536   1.420  -1.947  0.00  0.00    +0.000 C 
ATOM     25  C23 UNL     1       0.306   0.954  -0.798  0.00  0.00    +0.000 C 
ATOM     26  C24 UNL     1      -0.135   1.685   0.432  0.00  0.00    +0.000 C 
ATOM     27  C25 UNL     1       1.781   1.014  -1.036  0.00  0.00    +0.000 C 
ATOM     28  C26 UNL     1       2.577   1.644   0.068  0.00  0.00    +0.000 C 
ATOM     29  C27 UNL     1       3.071   3.002  -0.397  0.00  0.00    +0.000 C 
ATOM     30  H9  UNL     1       4.107   0.919   2.378  0.00  0.00    +0.000 HD
ENDROOT
BRANCH  17  31
ATOM     31  O2  UNL     1      -7.428  -0.635   0.346  0.00  0.00    +0.000 OA
ATOM     32  H25 UNL     1      -7.466   0.352   0.246  0.00  0.00    +0.000 HD
ENDBRANCH  17  31
TORSDOF 1
