REMARK  Name = ./3D_structures\o9_MMV1593519_3D.pdb
REMARK  7 active torsions:
REMARK  status: ('A' for Active; 'I' for Inactive)
REMARK    1  A    between atoms: C1_2  and  N1_3
REMARK    2  A    between atoms: C4_8  and  N4_12
REMARK    3  A    between atoms: C8_13  and  O2_14
REMARK    4  A    between atoms: C8_13  and  C9_15
REMARK    5  A    between atoms: C10_16  and  O4_20
REMARK    6  A    between atoms: C11_17  and  C12_18
REMARK    7  A    between atoms: C12_18  and  O3_19
REMARK                            x       y       z     vdW  Elec       q    Type
REMARK                         _______ _______ _______ _____ _____    ______ ____
ROOT
ATOM      1  O1  UNL     1      -0.910   1.044  -0.889  0.00  0.00    +0.000 OA
ATOM      2  C1  UNL     1      -0.673  -0.317  -1.032  0.00  0.00    +0.000 C 
ATOM      3  C8  UNL     1      -1.676  -1.056  -0.217  0.00  0.00    +0.000 C 
ATOM      4  C9  UNL     1      -1.096  -2.001   0.788  0.00  0.00    +0.000 C 
ATOM      5  C10 UNL     1      -2.414   0.054   0.504  0.00  0.00    +0.000 C 
ATOM      6  C11 UNL     1      -2.194   1.209  -0.444  0.00  0.00    +0.000 C 
ENDROOT
BRANCH   2   7
ATOM      7  N1  UNL     1       0.689  -0.642  -0.723  0.00  0.00    +0.000 N 
ATOM      8  C2  UNL     1       1.614   0.238  -0.321  0.00  0.00    +0.000 A 
ATOM      9  N2  UNL     1       1.577   1.585  -0.096  0.00  0.00    +0.000 NA
ATOM     10  C3  UNL     1       2.648   2.277   0.312  0.00  0.00    +0.000 C 
ATOM     11  N3  UNL     1       3.801   1.617   0.507  0.00  0.00    +0.000 NA
ATOM     12  C4  UNL     1       3.898   0.292   0.302  0.00  0.00    +0.000 C 
ATOM     13  C5  UNL     1       2.789  -0.398  -0.116  0.00  0.00    +0.000 A 
ATOM     14  C6  UNL     1       2.613  -1.727  -0.394  0.00  0.00    +0.000 A 
ATOM     15  C7  UNL     1       1.278  -1.840  -0.773  0.00  0.00    +0.000 A 
BRANCH  12  16
ATOM     16  N4  UNL     1       5.158  -0.322   0.534  0.00  0.00    +0.000 N 
ATOM     17  H5  UNL     1       5.770  -0.689  -0.227  0.00  0.00    +0.000 HD
ATOM     18  H6  UNL     1       5.489  -0.411   1.517  0.00  0.00    +0.000 HD
ENDBRANCH  12  16
ENDBRANCH   2   7
BRANCH   3  19
ATOM     19  O2  UNL     1      -2.575  -1.771  -1.006  0.00  0.00    +0.000 OA
ATOM     20  H7  UNL     1      -2.195  -1.779  -1.924  0.00  0.00    +0.000 HD
ENDBRANCH   3  19
BRANCH   5  21
ATOM     21  O4  UNL     1      -3.753  -0.301   0.559  0.00  0.00    +0.000 OA
ATOM     22  H16 UNL     1      -3.814  -1.276   0.808  0.00  0.00    +0.000 HD
ENDBRANCH   5  21
BRANCH   6  23
ATOM     23  C12 UNL     1      -2.378   2.484   0.351  0.00  0.00    +0.000 C 
BRANCH  23  24
ATOM     24  O3  UNL     1      -3.714   2.532   0.742  0.00  0.00    +0.000 OA
ATOM     25  H15 UNL     1      -4.137   3.397   0.563  0.00  0.00    +0.000 HD
ENDBRANCH  23  24
ENDBRANCH   6  23
TORSDOF 6
