REMARK  Name = ./3D_structures\o10_MMV000059_3D.pdb
REMARK  8 active torsions:
REMARK  status: ('A' for Active; 'I' for Inactive)
REMARK    1  A    between atoms: C1_2  and  C13_17
REMARK    2  A    between atoms: C4_5  and  C5_6
REMARK    3  A    between atoms: C8_9  and  C9_10
REMARK    4  A    between atoms: N2_12  and  O2_13
REMARK    5  A    between atoms: O2_13  and  C10_14
REMARK    6  A    between atoms: C16_20  and  C17_21
REMARK    7  A    between atoms: N4_23  and  O3_24
REMARK    8  A    between atoms: O3_24  and  C18_25
REMARK                            x       y       z     vdW  Elec       q    Type
REMARK                         _______ _______ _______ _____ _____    ______ ____
ROOT
ATOM      1  O1  UNL     1      -0.111  -0.336  -0.319  0.00  0.00    +0.000 OA
ATOM      2  C1  UNL     1       1.027  -0.642  -0.873  0.00  0.00    +0.000 A 
ATOM      3  C2  UNL     1       0.755  -1.399  -1.986  0.00  0.00    +0.000 A 
ATOM      4  C3  UNL     1      -0.637  -1.532  -2.069  0.00  0.00    +0.000 A 
ATOM      5  C4  UNL     1      -1.114  -0.835  -0.984  0.00  0.00    +0.000 A 
ENDROOT
BRANCH   5   6
ATOM      6  C5  UNL     1      -2.512  -0.678  -0.631  0.00  0.00    +0.000 A 
ATOM      7  C6  UNL     1      -3.511  -1.242  -1.393  0.00  0.00    +0.000 A 
ATOM      8  C7  UNL     1      -4.856  -1.080  -1.039  0.00  0.00    +0.000 A 
ATOM      9  C8  UNL     1      -5.226  -0.362   0.070  0.00  0.00    +0.000 A 
ATOM     10  C11 UNL     1      -4.236   0.207   0.840  0.00  0.00    +0.000 A 
ATOM     11  C12 UNL     1      -2.894   0.042   0.480  0.00  0.00    +0.000 A 
BRANCH   9  12
ATOM     12  C9  UNL     1      -6.611  -0.176   0.462  0.00  0.00    +0.000 C 
ATOM     13  N1  UNL     1      -7.604  -0.682  -0.224  0.00  0.00    +0.000 NA
ATOM     14  N2  UNL     1      -6.982   0.562   1.612  0.00  0.00    +0.000 N 
ATOM     15  H5  UNL     1      -7.515  -1.238  -1.074  0.00  0.00    +0.000 HD
ATOM     16  H6  UNL     1      -6.339   0.545   2.441  0.00  0.00    +0.000 HD
BRANCH  14  17
ATOM     17  O2  UNL     1      -8.122   1.291   1.701  0.00  0.00    +0.000 OA
ATOM     18  C10 UNL     1      -8.685   1.558   0.477  0.00  0.00    +0.000 C 
ENDBRANCH  14  17
ENDBRANCH   9  12
ENDBRANCH   5   6
BRANCH   2  19
ATOM     19  C13 UNL     1       2.359  -0.258  -0.409  0.00  0.00    +0.000 A 
ATOM     20  C14 UNL     1       3.500  -0.642  -1.081  0.00  0.00    +0.000 A 
ATOM     21  C15 UNL     1       4.769  -0.307  -0.685  0.00  0.00    +0.000 A 
ATOM     22  C16 UNL     1       4.957   0.463   0.454  0.00  0.00    +0.000 A 
ATOM     23  C19 UNL     1       3.838   0.860   1.143  0.00  0.00    +0.000 A 
ATOM     24  C20 UNL     1       2.556   0.505   0.719  0.00  0.00    +0.000 A 
BRANCH  22  25
ATOM     25  C17 UNL     1       6.307   0.828   0.886  0.00  0.00    +0.000 C 
ATOM     26  N3  UNL     1       6.491   1.528   1.931  0.00  0.00    +0.000 NA
ATOM     27  N4  UNL     1       7.455   0.405   0.139  0.00  0.00    +0.000 N 
ATOM     28  H14 UNL     1       5.763   1.896   2.557  0.00  0.00    +0.000 HD
ATOM     29  H15 UNL     1       7.367   0.375  -0.892  0.00  0.00    +0.000 HD
BRANCH  27  30
ATOM     30  O3  UNL     1       8.598   0.065   0.810  0.00  0.00    +0.000 OA
ATOM     31  C18 UNL     1       9.419   1.192   0.775  0.00  0.00    +0.000 C 
ENDBRANCH  27  30
ENDBRANCH  22  25
ENDBRANCH   2  19
TORSDOF 6
