REMARK  Name = ./3D_structures\o11_MMV637104_3D.pdb
REMARK  9 active torsions:
REMARK  status: ('A' for Active; 'I' for Inactive)
REMARK    1  A    between atoms: N1_1  and  C1_2
REMARK    2  A    between atoms: N1_1  and  C12_13
REMARK    3  A    between atoms: N1_1  and  C23_24
REMARK    4  A    between atoms: C1_2  and  C2_3
REMARK    5  A    between atoms: C12_13  and  C13_14
REMARK    6  A    between atoms: C16_17  and  C17_18
REMARK    7  A    between atoms: C17_18  and  C18_19
REMARK    8  A    between atoms: C17_18  and  C19_20
REMARK    9  A    between atoms: C17_18  and  C20_21
REMARK                            x       y       z     vdW  Elec       q    Type
REMARK                         _______ _______ _______ _____ _____    ______ ____
ROOT
ATOM      1  N1  UNL     1      -1.029   0.155   0.182  0.00  0.00    +0.000 NA
ATOM      2  C23 UNL     1      -0.734  -1.126  -0.397  0.00  0.00    +0.000 C 
ENDROOT
BRANCH   1   3
ATOM      3  C1  UNL     1      -2.327   0.669  -0.084  0.00  0.00    +0.000 C 
BRANCH   3   4
ATOM      4  C2  UNL     1      -3.461  -0.099   0.429  0.00  0.00    +0.000 A 
ATOM      5  C3  UNL     1      -3.385  -1.256   1.154  0.00  0.00    +0.000 A 
ATOM      6  C4  UNL     1      -4.549  -1.859   1.576  0.00  0.00    +0.000 A 
ATOM      7  C5  UNL     1      -5.792  -1.335   1.292  0.00  0.00    +0.000 A 
ATOM      8  C6  UNL     1      -5.883  -0.169   0.562  0.00  0.00    +0.000 A 
ATOM      9  C7  UNL     1      -7.129   0.380   0.259  0.00  0.00    +0.000 A 
ATOM     10  C8  UNL     1      -7.242   1.547  -0.474  0.00  0.00    +0.000 A 
ATOM     11  C9  UNL     1      -6.082   2.157  -0.901  0.00  0.00    +0.000 A 
ATOM     12  C10 UNL     1      -4.858   1.600  -0.592  0.00  0.00    +0.000 A 
ATOM     13  C11 UNL     1      -4.721   0.436   0.138  0.00  0.00    +0.000 A 
ENDBRANCH   3   4
ENDBRANCH   1   3
BRANCH   1  14
ATOM     14  C12 UNL     1      -0.090   1.137  -0.394  0.00  0.00    +0.000 C 
BRANCH  14  15
ATOM     15  C13 UNL     1       1.317   0.714  -0.222  0.00  0.00    +0.000 A 
ATOM     16  C14 UNL     1       1.858   0.533   1.030  0.00  0.00    +0.000 A 
ATOM     17  C15 UNL     1       3.188   0.140   1.192  0.00  0.00    +0.000 A 
ATOM     18  C16 UNL     1       4.008  -0.081   0.119  0.00  0.00    +0.000 A 
ATOM     19  C21 UNL     1       3.469   0.099  -1.144  0.00  0.00    +0.000 A 
ATOM     20  C22 UNL     1       2.154   0.487  -1.300  0.00  0.00    +0.000 A 
BRANCH  18  21
ATOM     21  C17 UNL     1       5.437  -0.494   0.250  0.00  0.00    +0.000 C 
ATOM     22  C18 UNL     1       5.660  -1.338   1.468  0.00  0.00    +0.000 C 
ATOM     23  C19 UNL     1       6.242   0.797   0.457  0.00  0.00    +0.000 C 
ATOM     24  C20 UNL     1       5.927  -1.192  -0.986  0.00  0.00    +0.000 C 
ENDBRANCH  18  21
ENDBRANCH  14  15
ENDBRANCH   1  14
TORSDOF 5
