REMARK  Name = ./3D_structures\o12_MMV637533_3D.pdb
REMARK  8 active torsions:
REMARK  status: ('A' for Active; 'I' for Inactive)
REMARK    1  A    between atoms: C2_3  and  C7_9
REMARK    2  A    between atoms: C7_9  and  C23_31
REMARK    3  A    between atoms: C8_11  and  C9_12
REMARK    4  A    between atoms: C9_12  and  O2_13
REMARK    5  A    between atoms: O2_13  and  C10_14
REMARK    6  A    between atoms: C13_17  and  N1_18
REMARK    7  A    between atoms: C16_22  and  C17_24
REMARK    8  A    between atoms: C23_31  and  N3_32
REMARK                            x       y       z     vdW  Elec       q    Type
REMARK                         _______ _______ _______ _____ _____    ______ ____
ROOT
ATOM      1  C7  UNL     1      -4.453  -0.393  -0.247  0.00  0.00    +0.000 C 
ATOM      2  O1  UNL     1      -3.263  -1.075  -0.130  0.00  0.00    +0.000 OA
ATOM      3  C8  UNL     1      -2.521  -1.005  -1.260  0.00  0.00    +0.000 C 
ATOM      4  C22 UNL     1      -3.366  -0.173  -2.194  0.00  0.00    +0.000 C 
ATOM      5  O4  UNL     1      -4.643  -0.422  -1.708  0.00  0.00    +0.000 OA
ENDROOT
BRANCH   1   8
ATOM      6 CL1  UNL     1      -5.141  -2.894  -1.746  0.00  0.00    +0.000 Cl
ATOM      7  C1  UNL     1      -5.929  -2.408  -0.257  0.00  0.00    +0.000 A 
ATOM      8  C2  UNL     1      -5.542  -1.194   0.302  0.00  0.00    +0.000 A 
ATOM      9  C3  UNL     1      -6.182  -0.828   1.457  0.00  0.00    +0.000 A 
ATOM     10  C4  UNL     1      -7.174  -1.599   2.072  0.00  0.00    +0.000 A 
ATOM     11  C5  UNL     1      -7.513  -2.791   1.469  0.00  0.00    +0.000 A 
ATOM     12  C6  UNL     1      -6.904  -3.208   0.311  0.00  0.00    +0.000 A 
ATOM     13 CL2  UNL     1      -8.754  -3.771   2.224  0.00  0.00    +0.000 Cl
ENDBRANCH   1   8
BRANCH   3  14
ATOM     14  C9  UNL     1      -1.134  -0.423  -1.090  0.00  0.00    +0.000 C 
BRANCH  14  15
ATOM     15  O2  UNL     1      -0.346  -1.145  -0.202  0.00  0.00    +0.000 OA
BRANCH  15  16
ATOM     16  C10 UNL     1       0.957  -0.733   0.059  0.00  0.00    +0.000 A 
ATOM     17  C11 UNL     1       1.437   0.385  -0.571  0.00  0.00    +0.000 A 
ATOM     18  C12 UNL     1       2.726   0.873  -0.374  0.00  0.00    +0.000 A 
ATOM     19  C13 UNL     1       3.542   0.218   0.475  0.00  0.00    +0.000 A 
ATOM     20  C20 UNL     1       3.059  -0.927   1.125  0.00  0.00    +0.000 A 
ATOM     21  C21 UNL     1       1.788  -1.392   0.918  0.00  0.00    +0.000 A 
BRANCH  19  22
ATOM     22  N1  UNL     1       4.878   0.647   0.736  0.00  0.00    +0.000 N 
ATOM     23  C14 UNL     1       5.440   1.788   0.101  0.00  0.00    +0.000 C 
ATOM     24  C15 UNL     1       6.773   1.455  -0.581  0.00  0.00    +0.000 C 
ATOM     25  N2  UNL     1       7.537   0.558   0.287  0.00  0.00    +0.000 N 
ATOM     26  C16 UNL     1       8.638  -0.158  -0.216  0.00  0.00    +0.000 C 
ATOM     27  O3  UNL     1       8.970  -0.033  -1.408  0.00  0.00    +0.000 OA
ATOM     28  C17 UNL     1       9.401  -1.060   0.669  0.00  0.00    +0.000 C 
ATOM     29  C18 UNL     1       7.103   0.455   1.660  0.00  0.00    +0.000 C 
ATOM     30  C19 UNL     1       5.709  -0.096   1.682  0.00  0.00    +0.000 C 
ENDBRANCH  19  22
ENDBRANCH  15  16
ENDBRANCH  14  15
ENDBRANCH   3  14
BRANCH   1  31
ATOM     31  C23 UNL     1      -4.352   1.027   0.080  0.00  0.00    +0.000 C 
BRANCH  31  32
ATOM     32  N3  UNL     1      -5.416   1.905  -0.342  0.00  0.00    +0.000 N 
ATOM     33  C24 UNL     1      -6.488   2.267   0.332  0.00  0.00    +0.000 A 
ATOM     34  N4  UNL     1      -7.261   3.103  -0.427  0.00  0.00    +0.000 NA
ATOM     35  C25 UNL     1      -6.632   3.241  -1.581  0.00  0.00    +0.000 A 
ATOM     36  C26 UNL     1      -5.480   2.505  -1.554  0.00  0.00    +0.000 A 
ENDBRANCH  31  32
ENDBRANCH   1  31
TORSDOF 7
