REMARK  Name = ./3D_structures\o13_MMV1634362_3D.pdb
REMARK  9 active torsions:
REMARK  status: ('A' for Active; 'I' for Inactive)
REMARK    1  A    between atoms: C1_2  and  C11_14
REMARK    2  A    between atoms: C2_4  and  C4_6
REMARK    3  A    between atoms: C7_9  and  C8_10
REMARK    4  A    between atoms: C11_14  and  C12_15
REMARK    5  A    between atoms: C11_14  and  C22_31
REMARK    6  A    between atoms: C12_15  and  O1_16
REMARK    7  A    between atoms: C12_15  and  C13_17
REMARK    8  A    between atoms: C12_15  and  C19_25
REMARK    9  A    between atoms: C19_25  and  N3_26
REMARK                            x       y       z     vdW  Elec       q    Type
REMARK                         _______ _______ _______ _____ _____    ______ ____
ROOT
ATOM      1  C12 UNL     1      -1.773  -0.988  -0.280  0.00  0.00    +0.000 C 
ENDROOT
BRANCH   1   2
ATOM      2  C13 UNL     1      -2.460  -0.487   0.963  0.00  0.00    +0.000 A 
ATOM      3  C14 UNL     1      -1.838   0.447   1.748  0.00  0.00    +0.000 A 
ATOM      4  F1  UNL     1      -0.639   0.995   1.441  0.00  0.00    +0.000 F 
ATOM      5  C15 UNL     1      -2.510   0.862   2.916  0.00  0.00    +0.000 A 
ATOM      6  C16 UNL     1      -3.730   0.375   3.280  0.00  0.00    +0.000 A 
ATOM      7  F2  UNL     1      -4.356   0.815   4.427  0.00  0.00    +0.000 F 
ATOM      8  C17 UNL     1      -4.349  -0.563   2.484  0.00  0.00    +0.000 A 
ATOM      9  C18 UNL     1      -3.716  -0.979   1.346  0.00  0.00    +0.000 A 
ENDBRANCH   1   2
BRANCH   1  10
ATOM     10  C11 UNL     1      -0.619  -1.883  -0.014  0.00  0.00    +0.000 C 
ATOM     11  C22 UNL     1      -0.230  -2.559  -1.323  0.00  0.00    +0.000 C 
BRANCH  10  13
ATOM     12  S1  UNL     1       1.047  -1.641   2.379  0.00  0.00    +0.000 S 
ATOM     13  C1  UNL     1       0.613  -1.323   0.562  0.00  0.00    +0.000 A 
ATOM     14  N1  UNL     1       1.534  -0.721   0.204  0.00  0.00    +0.000 NA
ATOM     15  C2  UNL     1       2.612  -0.360   0.908  0.00  0.00    +0.000 A 
ATOM     16  C3  UNL     1       2.614  -0.737   2.154  0.00  0.00    +0.000 A 
BRANCH  15  17
ATOM     17  C4  UNL     1       3.742   0.367   0.258  0.00  0.00    +0.000 A 
ATOM     18  C5  UNL     1       4.840   0.750   0.999  0.00  0.00    +0.000 A 
ATOM     19  C6  UNL     1       5.932   1.368   0.425  0.00  0.00    +0.000 A 
ATOM     20  C7  UNL     1       5.954   1.624  -0.929  0.00  0.00    +0.000 A 
ATOM     21  C9  UNL     1       4.854   1.244  -1.673  0.00  0.00    +0.000 A 
ATOM     22  C10 UNL     1       3.789   0.636  -1.086  0.00  0.00    +0.000 A 
BRANCH  20  23
ATOM     23  C8  UNL     1       7.081   2.229  -1.609  0.00  0.00    +0.000 C 
ATOM     24  N2  UNL     1       7.964   2.715  -2.155  0.00  0.00    +0.000 NA
ENDBRANCH  20  23
ENDBRANCH  15  17
ENDBRANCH  10  13
ENDBRANCH   1  10
BRANCH   1  25
ATOM     25  O1  UNL     1      -2.737  -1.897  -0.843  0.00  0.00    +0.000 OA
ATOM     26  H7  UNL     1      -2.719  -2.678  -0.238  0.00  0.00    +0.000 HD
ENDBRANCH   1  25
BRANCH   1  27
ATOM     27  C19 UNL     1      -1.563   0.081  -1.291  0.00  0.00    +0.000 C 
BRANCH  27  28
ATOM     28  N3  UNL     1      -2.759   0.903  -1.493  0.00  0.00    +0.000 N 
ATOM     29  N4  UNL     1      -3.135   2.013  -0.889  0.00  0.00    +0.000 NA
ATOM     30  C20 UNL     1      -4.307   2.443  -1.379  0.00  0.00    +0.000 A 
ATOM     31  N5  UNL     1      -4.638   1.527  -2.331  0.00  0.00    +0.000 NA
ATOM     32  C21 UNL     1      -3.694   0.575  -2.407  0.00  0.00    +0.000 A 
ENDBRANCH  27  28
ENDBRANCH   1  27
TORSDOF 8
