REMARK  Name = ./3D_structures\o14_MMV1634360_3D.pdb
REMARK  2 active torsions:
REMARK  status: ('A' for Active; 'I' for Inactive)
REMARK    1  A    between atoms: N1_3  and  C13_16
REMARK    2  A    between atoms: C13_16  and  C14_17
REMARK                            x       y       z     vdW  Elec       q    Type
REMARK                         _______ _______ _______ _____ _____    ______ ____
ROOT
ATOM      1  O1  UNL     1       1.498  -1.357  -1.609  0.00  0.00    +0.000 OA
ATOM      2  C1  UNL     1       0.775  -0.563  -0.984  0.00  0.00    +0.000 C 
ATOM      3  N1  UNL     1       1.349   0.601  -0.399  0.00  0.00    +0.000 N 
ATOM      4  C2  UNL     1       0.469   1.470   0.302  0.00  0.00    +0.000 C 
ATOM      5  O2  UNL     1       0.940   2.492   0.822  0.00  0.00    +0.000 OA
ATOM      6  C3  UNL     1      -0.967   1.168   0.410  0.00  0.00    +0.000 A 
ATOM      7  C4  UNL     1      -1.493   0.027  -0.171  0.00  0.00    +0.000 A 
ATOM      8  C5  UNL     1      -0.670  -0.848  -0.864  0.00  0.00    +0.000 A 
ATOM      9  C6  UNL     1      -1.190  -1.995  -1.450  0.00  0.00    +0.000 A 
ATOM     10  C7  UNL     1      -2.519  -2.279  -1.353  0.00  0.00    +0.000 A 
ATOM     11  C8  UNL     1      -3.332  -1.416  -0.669  0.00  0.00    +0.000 A 
ATOM     12  C9  UNL     1      -2.856  -0.266  -0.072  0.00  0.00    +0.000 A 
ATOM     13  C10 UNL     1      -3.653   0.613   0.619  0.00  0.00    +0.000 A 
ATOM     14  C11 UNL     1      -3.157   1.754   1.206  0.00  0.00    +0.000 A 
ATOM     15  C12 UNL     1      -1.801   2.025   1.095  0.00  0.00    +0.000 A 
ENDROOT
BRANCH   3  16
ATOM     16  C13 UNL     1       2.766   0.838  -0.543  0.00  0.00    +0.000 C 
BRANCH  16  17
ATOM     17  C14 UNL     1       3.546   0.211   0.593  0.00  0.00    +0.000 C 
ATOM     18  O3  UNL     1       3.346  -1.200   0.639  0.00  0.00    +0.000 OA
ATOM     19  C15 UNL     1       4.623  -0.757   0.301  0.00  0.00    +0.000 C 
ENDBRANCH  16  17
ENDBRANCH   3  16
TORSDOF 2
