REMARK  Name = ./3D_structures\o15_MMV002565_3D.pdb
REMARK  4 active torsions:
REMARK  status: ('A' for Active; 'I' for Inactive)
REMARK    1  A    between atoms: S1_1  and  C1_3
REMARK    2  A    between atoms: S1_1  and  C10_17
REMARK    3  A    between atoms: C6_11  and  O3_13
REMARK    4  A    between atoms: O3_13  and  C7_14
REMARK                            x       y       z     vdW  Elec       q    Type
REMARK                         _______ _______ _______ _____ _____    ______ ____
ROOT
ATOM      1  C1  UNL     1      -1.591  -0.690   1.328  0.00  0.00    +0.000 A 
ATOM      2  C2  UNL     1      -0.599   0.249   1.500  0.00  0.00    +0.000 A 
ATOM      3  C3  UNL     1       0.696   0.043   1.022  0.00  0.00    +0.000 A 
ATOM      4  C4  UNL     1       0.981  -1.132   0.363  0.00  0.00    +0.000 A 
ATOM      5  N1  UNL     1       2.300  -1.062   0.013  0.00  0.00    +0.000 N 
ATOM      6  C5  UNL     1       2.834   0.086   0.420  0.00  0.00    +0.000 A 
ATOM      7  N2  UNL     1       1.824   0.755   1.042  0.00  0.00    +0.000 NA
ATOM      8  N3  UNL     1       4.151   0.609   0.292  0.00  0.00    +0.000 N 
ATOM      9  C6  UNL     1       5.212  -0.077  -0.353  0.00  0.00    +0.000 C 
ATOM     10  O2  UNL     1       5.001  -1.211  -0.847  0.00  0.00    +0.000 OA
ATOM     11  C8  UNL     1       0.005  -2.074   0.185  0.00  0.00    +0.000 A 
ATOM     12  C9  UNL     1      -1.285  -1.861   0.665  0.00  0.00    +0.000 A 
ATOM     13  H2  UNL     1       2.809  -1.812  -0.503  0.00  0.00    +0.000 HD
ATOM     14  H3  UNL     1       4.390   1.567   0.692  0.00  0.00    +0.000 HD
ENDROOT
BRANCH   1  15
ATOM     15  S1  UNL     1      -3.248  -0.412   1.947  0.00  0.00    +0.000 S 
ATOM     16  O1  UNL     1      -3.211   0.443   3.205  0.00  0.00    +0.000 OA
BRANCH  15  17
ATOM     17  C10 UNL     1      -4.169   0.387   0.671  0.00  0.00    +0.000 A 
ATOM     18  C11 UNL     1      -4.852  -0.393  -0.232  0.00  0.00    +0.000 A 
ATOM     19  C12 UNL     1      -5.589   0.174  -1.251  0.00  0.00    +0.000 A 
ATOM     20  C13 UNL     1      -5.605   1.550  -1.317  0.00  0.00    +0.000 A 
ATOM     21  C14 UNL     1      -4.937   2.351  -0.437  0.00  0.00    +0.000 A 
ATOM     22  C15 UNL     1      -4.202   1.759   0.581  0.00  0.00    +0.000 A 
ENDBRANCH  15  17
ENDBRANCH   1  15
BRANCH   9  23
ATOM     23  O3  UNL     1       6.496   0.508  -0.440  0.00  0.00    +0.000 OA
ATOM     24  C7  UNL     1       7.537  -0.195  -1.088  0.00  0.00    +0.000 C 
ENDBRANCH   9  23
TORSDOF 3
