REMARK  Name = ./3D_structures\o16_MMV396785_3D.pdb
REMARK  23 active torsions:
REMARK  status: ('A' for Active; 'I' for Inactive)
REMARK    1  A    between atoms: N4_6  and  C3_7
REMARK    2  A    between atoms: C3_7  and  C4_8
REMARK    3  A    between atoms: C4_8  and  C5_9
REMARK    4  A    between atoms: C5_9  and  C6_10
REMARK    5  A    between atoms: C6_10  and  C7_11
REMARK    6  A    between atoms: C7_11  and  C8_12
REMARK    7  A    between atoms: C8_12  and  N5_13
REMARK    8  A    between atoms: N9_19  and  C11_20
REMARK    9  A    between atoms: C11_20  and  C12_21
REMARK   10  A    between atoms: C12_21  and  C13_22
REMARK   11  A    between atoms: C12_21  and  C17_26
REMARK   12  A    between atoms: C13_22  and  C14_23
REMARK   13  A    between atoms: C14_23  and  C15_24
REMARK   14  A    between atoms: C15_24  and  C16_25
REMARK   15  A    between atoms: C17_26  and  C18_27
REMARK   16  A    between atoms: N10_28  and  C19_29
REMARK   17  A    between atoms: C19_29  and  C20_30
REMARK   18  A    between atoms: C20_30  and  C21_31
REMARK   19  A    between atoms: C20_30  and  C25_35
REMARK   20  A    between atoms: C21_31  and  C22_32
REMARK   21  A    between atoms: C22_32  and  C23_33
REMARK   22  A    between atoms: C23_33  and  C24_34
REMARK   23  A    between atoms: C25_35  and  C26_36
REMARK                            x       y       z     vdW  Elec       q    Type
REMARK                         _______ _______ _______ _____ _____    ______ ____
ROOT
ATOM      1  C5  UNL     1      -0.121  -3.282  -0.599  0.00  0.00    +0.000 C 
ENDROOT
BRANCH   1   2
ATOM      2  C4  UNL     1      -1.273  -2.339  -0.413  0.00  0.00    +0.000 C 
BRANCH   2   3
ATOM      3  C3  UNL     1      -1.965  -1.996  -1.699  0.00  0.00    +0.000 C 
BRANCH   3   9
ATOM      4  N1  UNL     1      -7.124  -1.898  -0.671  0.00  0.00    +0.000 NA
ATOM      5  C1  UNL     1      -6.589  -0.815  -0.304  0.00  0.00    +0.000 C 
ATOM      6  N2  UNL     1      -5.220  -0.488  -0.502  0.00  0.00    +0.000 N 
ATOM      7  C2  UNL     1      -4.297  -1.488  -0.906  0.00  0.00    +0.000 C 
ATOM      8  N3  UNL     1      -4.559  -2.714  -0.689  0.00  0.00    +0.000 NA
ATOM      9  N4  UNL     1      -3.081  -1.107  -1.552  0.00  0.00    +0.000 N 
ATOM     10  N10 UNL     1      -7.374   0.209   0.356  0.00  0.00    +0.000 N 
ATOM     11  H1  UNL     1      -6.760  -2.707  -1.143  0.00  0.00    +0.000 HD
ATOM     12  H2  UNL     1      -4.869   0.485  -0.355  0.00  0.00    +0.000 HD
ATOM     13  H3  UNL     1      -3.964  -3.519  -0.939  0.00  0.00    +0.000 HD
ATOM     14  H4  UNL     1      -3.029  -0.122  -1.926  0.00  0.00    +0.000 HD
ATOM     15  H39 UNL     1      -7.051   1.190   0.320  0.00  0.00    +0.000 HD
BRANCH  10  16
ATOM     16  C19 UNL     1      -8.580  -0.223   1.024  0.00  0.00    +0.000 C 
BRANCH  16  17
ATOM     17  C20 UNL     1      -9.342   0.893   1.660  0.00  0.00    +0.000 C 
BRANCH  17  18
ATOM     18  C25 UNL     1      -8.744   1.469   2.895  0.00  0.00    +0.000 C 
ATOM     19  C26 UNL     1      -7.386   2.061   2.738  0.00  0.00    +0.000 C 
ENDBRANCH  17  18
BRANCH  17  20
ATOM     20  C21 UNL     1      -9.753   1.927   0.630  0.00  0.00    +0.000 C 
BRANCH  20  21
ATOM     21  C22 UNL     1     -10.630   1.341  -0.442  0.00  0.00    +0.000 C 
BRANCH  21  22
ATOM     22  C23 UNL     1     -10.972   2.479  -1.398  0.00  0.00    +0.000 C 
ATOM     23  C24 UNL     1     -11.702   3.600  -0.719  0.00  0.00    +0.000 C 
ENDBRANCH  21  22
ENDBRANCH  20  21
ENDBRANCH  17  20
ENDBRANCH  16  17
ENDBRANCH  10  16
ENDBRANCH   3   9
ENDBRANCH   2   3
ENDBRANCH   1   2
BRANCH   1  24
ATOM     24  C6  UNL     1       0.914  -2.676  -1.498  0.00  0.00    +0.000 C 
BRANCH  24  25
ATOM     25  C7  UNL     1       2.094  -3.618  -1.696  0.00  0.00    +0.000 C 
BRANCH  25  26
ATOM     26  C8  UNL     1       3.149  -3.030  -2.600  0.00  0.00    +0.000 C 
BRANCH  26  27
ATOM     27  N5  UNL     1       3.679  -1.825  -2.045  0.00  0.00    +0.000 N 
ATOM     28  C9  UNL     1       4.500  -1.813  -0.857  0.00  0.00    +0.000 C 
ATOM     29  N6  UNL     1       4.810  -2.850  -0.288  0.00  0.00    +0.000 NA
ATOM     30  N7  UNL     1       4.975  -0.549  -0.331  0.00  0.00    +0.000 N 
ATOM     31  C10 UNL     1       5.923  -0.503   0.716  0.00  0.00    +0.000 C 
ATOM     32  N8  UNL     1       6.130  -1.572   1.406  0.00  0.00    +0.000 NA
ATOM     33  N9  UNL     1       6.682   0.633   1.088  0.00  0.00    +0.000 N 
ATOM     34  H17 UNL     1       3.478  -0.907  -2.495  0.00  0.00    +0.000 HD
ATOM     35  H18 UNL     1       4.807  -3.812  -0.181  0.00  0.00    +0.000 HD
ATOM     36  H19 UNL     1       4.625   0.350  -0.716  0.00  0.00    +0.000 HD
ATOM     37  H20 UNL     1       6.805  -1.642   2.194  0.00  0.00    +0.000 HD
ATOM     38  H21 UNL     1       6.251   1.567   0.845  0.00  0.00    +0.000 HD
BRANCH  33  39
ATOM     39  C11 UNL     1       7.929   0.626   1.733  0.00  0.00    +0.000 C 
BRANCH  39  40
ATOM     40  C12 UNL     1       9.106   0.129   0.986  0.00  0.00    +0.000 C 
BRANCH  40  41
ATOM     41  C17 UNL     1      10.323   0.276   1.881  0.00  0.00    +0.000 C 
ATOM     42  C18 UNL     1      10.162  -0.551   3.169  0.00  0.00    +0.000 C 
ENDBRANCH  40  41
BRANCH  40  43
ATOM     43  C13 UNL     1       9.327   0.966  -0.237  0.00  0.00    +0.000 C 
BRANCH  43  44
ATOM     44  C14 UNL     1       9.582   2.412   0.054  0.00  0.00    +0.000 C 
BRANCH  44  45
ATOM     45  C15 UNL     1       9.799   3.209  -1.240  0.00  0.00    +0.000 C 
ATOM     46  C16 UNL     1       8.567   3.113  -2.106  0.00  0.00    +0.000 C 
ENDBRANCH  44  45
ENDBRANCH  43  44
ENDBRANCH  40  43
ENDBRANCH  39  40
ENDBRANCH  33  39
ENDBRANCH  26  27
ENDBRANCH  25  26
ENDBRANCH  24  25
ENDBRANCH   1  24
TORSDOF 19
