REMARK  Name = ./3D_structures\o17_MMV003143_3D.pdb
REMARK  4 active torsions:
REMARK  status: ('A' for Active; 'I' for Inactive)
REMARK    1  A    between atoms: S1_1  and  C1_2
REMARK    2  A    between atoms: S1_1  and  C10_16
REMARK    3  A    between atoms: C6_10  and  O2_12
REMARK    4  A    between atoms: O2_12  and  C7_13
REMARK                            x       y       z     vdW  Elec       q    Type
REMARK                         _______ _______ _______ _____ _____    ______ ____
ROOT
ATOM      1  C1  UNL     1       1.669  -0.041   1.688  0.00  0.00    +0.000 A 
ATOM      2  C2  UNL     1       1.034   0.009   0.467  0.00  0.00    +0.000 A 
ATOM      3  C3  UNL     1      -0.362  -0.053   0.361  0.00  0.00    +0.000 A 
ATOM      4  C4  UNL     1      -1.149  -0.165   1.476  0.00  0.00    +0.000 A 
ATOM      5  N1  UNL     1      -2.432  -0.202   1.088  0.00  0.00    +0.000 N 
ATOM      6  C5  UNL     1      -2.500  -0.118  -0.237  0.00  0.00    +0.000 A 
ATOM      7  N2  UNL     1      -1.211  -0.027  -0.671  0.00  0.00    +0.000 NA
ATOM      8  N3  UNL     1      -3.659  -0.122  -1.050  0.00  0.00    +0.000 N 
ATOM      9  C6  UNL     1      -4.965  -0.218  -0.551  0.00  0.00    +0.000 C 
ATOM     10  O1  UNL     1      -5.180  -0.309   0.669  0.00  0.00    +0.000 OA
ATOM     11  C8  UNL     1      -0.511  -0.215   2.718  0.00  0.00    +0.000 A 
ATOM     12  C9  UNL     1       0.859  -0.153   2.799  0.00  0.00    +0.000 A 
ATOM     13  H2  UNL     1      -3.215  -0.287   1.797  0.00  0.00    +0.000 HD
ATOM     14  H3  UNL     1      -3.543  -0.048  -2.082  0.00  0.00    +0.000 HD
ENDROOT
BRANCH   9  15
ATOM     15  O2  UNL     1      -6.093  -0.218  -1.396  0.00  0.00    +0.000 OA
ATOM     16  C7  UNL     1      -7.379  -0.319  -0.816  0.00  0.00    +0.000 C 
ENDBRANCH   9  15
BRANCH   1  17
ATOM     17  S1  UNL     1       3.414   0.029   1.925  0.00  0.00    +0.000 S 
BRANCH  17  18
ATOM     18  C10 UNL     1       4.316   0.174   0.400  0.00  0.00    +0.000 A 
ATOM     19  C11 UNL     1       4.605   1.424  -0.108  0.00  0.00    +0.000 A 
ATOM     20  C12 UNL     1       5.311   1.585  -1.305  0.00  0.00    +0.000 A 
ATOM     21  C13 UNL     1       5.733   0.469  -1.997  0.00  0.00    +0.000 A 
ATOM     22  C14 UNL     1       5.458  -0.796  -1.512  0.00  0.00    +0.000 A 
ATOM     23  C15 UNL     1       4.754  -0.919  -0.321  0.00  0.00    +0.000 A 
ENDBRANCH  17  18
ENDBRANCH   1  17
TORSDOF 3
