REMARK  Name = ./3D_structures\o18_MMV002337_3D.pdb
REMARK  6 active torsions:
REMARK  status: ('A' for Active; 'I' for Inactive)
REMARK    1  A    between atoms: C2_3  and  C7_9
REMARK    2  A    between atoms: C7_9  and  O1_10
REMARK    3  A    between atoms: C7_9  and  C8_11
REMARK    4  A    between atoms: C7_9  and  C11_17
REMARK    5  A    between atoms: C8_11  and  N1_12
REMARK    6  A    between atoms: C11_17  and  N4_18
REMARK                            x       y       z     vdW  Elec       q    Type
REMARK                         _______ _______ _______ _____ _____    ______ ____
ROOT
ATOM      1  C7  UNL     1      -0.467   0.349   0.221  0.00  0.00    +0.000 C 
ENDROOT
BRANCH   1   4
ATOM      2  F1  UNL     1      -3.070   0.304  -0.695  0.00  0.00    +0.000 F 
ATOM      3  C1  UNL     1      -2.524  -0.870  -0.359  0.00  0.00    +0.000 A 
ATOM      4  C2  UNL     1      -1.191  -0.905   0.148  0.00  0.00    +0.000 A 
ATOM      5  C3  UNL     1      -0.776  -2.143   0.482  0.00  0.00    +0.000 A 
ATOM      6  C4  UNL     1      -1.557  -3.312   0.353  0.00  0.00    +0.000 A 
ATOM      7  C5  UNL     1      -2.820  -3.241  -0.134  0.00  0.00    +0.000 A 
ATOM      8  C6  UNL     1      -3.286  -2.000  -0.487  0.00  0.00    +0.000 A 
ATOM      9  F2  UNL     1      -3.586  -4.367  -0.264  0.00  0.00    +0.000 F 
ENDBRANCH   1   4
BRANCH   1  10
ATOM     10  O1  UNL     1      -1.356   1.155   1.099  0.00  0.00    +0.000 OA
ATOM     11  H4  UNL     1      -1.450   0.663   1.933  0.00  0.00    +0.000 HD
ENDBRANCH   1  10
BRANCH   1  12
ATOM     12  C8  UNL     1      -0.450   1.164  -1.048  0.00  0.00    +0.000 C 
BRANCH  12  13
ATOM     13  N1  UNL     1       0.202   2.437  -0.849  0.00  0.00    +0.000 N 
ATOM     14  N2  UNL     1      -0.463   3.516  -0.340  0.00  0.00    +0.000 NA
ATOM     15  C9  UNL     1       0.334   4.585  -0.313  0.00  0.00    +0.000 A 
ATOM     16  N3  UNL     1       1.514   4.217  -0.800  0.00  0.00    +0.000 NA
ATOM     17  C10 UNL     1       1.414   2.899  -1.124  0.00  0.00    +0.000 A 
ENDBRANCH  12  13
ENDBRANCH   1  12
BRANCH   1  18
ATOM     18  C11 UNL     1       0.796   0.421   0.931  0.00  0.00    +0.000 C 
BRANCH  18  19
ATOM     19  N4  UNL     1       1.946  -0.380   0.644  0.00  0.00    +0.000 N 
ATOM     20  N5  UNL     1       2.259  -1.457   1.366  0.00  0.00    +0.000 NA
ATOM     21  C12 UNL     1       3.359  -2.025   0.880  0.00  0.00    +0.000 A 
ATOM     22  N6  UNL     1       3.790  -1.329  -0.176  0.00  0.00    +0.000 NA
ATOM     23  C13 UNL     1       2.892  -0.308  -0.303  0.00  0.00    +0.000 A 
ENDBRANCH  18  19
ENDBRANCH   1  18
TORSDOF 6
