REMARK  Name = ./3D_structures\o19_MMV1634363_3D.pdb
REMARK  1 active torsions:
REMARK  status: ('A' for Active; 'I' for Inactive)
REMARK    1  A    between atoms: B1_6  and  O1_7
REMARK                            x       y       z     vdW  Elec       q    Type
REMARK                         _______ _______ _______ _____ _____    ______ ____
ROOT
ATOM      1 CL1  UNL     1       3.838  -1.064  -0.098  0.00  0.00    +0.000 Cl
ATOM      2  C1  UNL     1       2.178  -0.477  -0.169  0.00  0.00    +0.000 A 
ATOM      3  C2  UNL     1       1.188  -1.261   0.361  0.00  0.00    +0.000 A 
ATOM      4  C3  UNL     1      -0.121  -0.755   0.284  0.00  0.00    +0.000 A 
ATOM      5  C4  UNL     1      -0.370   0.469  -0.300  0.00  0.00    +0.000 A 
ATOM      6  B1  UNL     1      -1.913   0.699  -0.197  0.00  0.00    +0.000 B 
ATOM      7  O2  UNL     1      -2.313  -0.237   0.880  0.00  0.00    +0.000 OA
ATOM      8  C5  UNL     1      -1.421  -1.286   0.721  0.00  0.00    +0.000 C 
ATOM      9  C6  UNL     1       0.660   1.219  -0.820  0.00  0.00    +0.000 A 
ATOM     10  C7  UNL     1       1.974   0.750  -0.762  0.00  0.00    +0.000 A 
ENDROOT
BRANCH   6  11
ATOM     11  O1  UNL     1      -2.540   2.018  -0.389  0.00  0.00    +0.000 OA
ATOM     12  H2  UNL     1      -2.660   2.456   0.495  0.00  0.00    +0.000 HD
ENDBRANCH   6  11
TORSDOF 1
