REMARK  Name = ./3D_structures\o1_MMV1634492_3D.pdb
REMARK  1 active torsions:
REMARK  status: ('A' for Active; 'I' for Inactive)
REMARK    1  A    between atoms: C11_13  and  N1_14
REMARK                            x       y       z     vdW  Elec       q    Type
REMARK                         _______ _______ _______ _____ _____    ______ ____
ROOT
ATOM      1 CL1  UNL     1       0.329  -2.478   2.522  0.00  0.00    +0.000 Cl
ATOM      2  C1  UNL     1      -0.900  -2.098   1.331  0.00  0.00    +0.000 A 
ATOM      3  C2  UNL     1      -0.721  -0.982   0.499  0.00  0.00    +0.000 A 
ATOM      4  C3  UNL     1      -1.645  -0.626  -0.456  0.00  0.00    +0.000 A 
ATOM      5  C4  UNL     1      -2.779  -1.448  -0.548  0.00  0.00    +0.000 A 
ATOM      6  C5  UNL     1      -2.946  -2.541   0.274  0.00  0.00    +0.000 A 
ATOM      7  C6  UNL     1      -2.014  -2.888   1.227  0.00  0.00    +0.000 A 
ATOM      8 CL2  UNL     1      -4.378  -3.555   0.137  0.00  0.00    +0.000 Cl
ATOM      9  C7  UNL     1      -1.746   0.450  -1.449  0.00  0.00    +0.000 C 
ATOM     10  C8  UNL     1      -0.534   1.265  -1.692  0.00  0.00    +0.000 C 
ATOM     11  C9  UNL     1       0.051   1.824  -0.469  0.00  0.00    +0.000 A 
ATOM     12  C10 UNL     1       0.528   1.144   0.634  0.00  0.00    +0.000 A 
ATOM     13  C11 UNL     1       0.553  -0.307   0.811  0.00  0.00    +0.000 C 
ATOM     14  C15 UNL     1       1.055   1.794   1.728  0.00  0.00    +0.000 A 
ATOM     15  C16 UNL     1       1.109   3.155   1.725  0.00  0.00    +0.000 A 
ATOM     16  C17 UNL     1       0.631   3.840   0.619  0.00  0.00    +0.000 A 
ATOM     17  C18 UNL     1       0.099   3.195  -0.487  0.00  0.00    +0.000 A 
ENDROOT
BRANCH  13  18
ATOM     18  N1  UNL     1       1.660  -0.873   0.028  0.00  0.00    +0.000 N 
ATOM     19  C12 UNL     1       2.772  -0.206  -0.319  0.00  0.00    +0.000 A 
ATOM     20  N2  UNL     1       3.561  -1.030  -1.026  0.00  0.00    +0.000 NA
ATOM     21  C13 UNL     1       2.969  -2.215  -1.137  0.00  0.00    +0.000 A 
ATOM     22  C14 UNL     1       1.762  -2.114  -0.467  0.00  0.00    +0.000 A 
ENDBRANCH  13  18
TORSDOF 1
