REMARK  Name = ./3D_structures\o20_MMV1634359_3D.pdb
REMARK  10 active torsions:
REMARK  status: ('A' for Active; 'I' for Inactive)
REMARK    1  A    between atoms: N1_1  and  C1_2
REMARK    2  A    between atoms: N1_1  and  C12_13
REMARK    3  A    between atoms: N1_1  and  C21_22
REMARK    4  A    between atoms: C1_2  and  C2_3
REMARK    5  A    between atoms: C12_13  and  C13_14
REMARK    6  A    between atoms: C14_15  and  C15_16
REMARK    7  A    between atoms: C16_17  and  C17_18
REMARK    8  A    between atoms: C17_18  and  C18_19
REMARK    9  A    between atoms: C17_18  and  C19_20
REMARK   10  A    between atoms: C17_18  and  C20_21
REMARK                            x       y       z     vdW  Elec       q    Type
REMARK                         _______ _______ _______ _____ _____    ______ ____
ROOT
ATOM      1  N1  UNL     1      -1.051   0.433  -0.777  0.00  0.00    +0.000 NA
ATOM      2  C21 UNL     1      -0.465  -0.433  -1.727  0.00  0.00    +0.000 C 
ENDROOT
BRANCH   1   3
ATOM      3  C1  UNL     1      -2.421   0.697  -0.839  0.00  0.00    +0.000 C 
BRANCH   3   4
ATOM      4  C2  UNL     1      -3.233  -0.206   0.005  0.00  0.00    +0.000 A 
ATOM      5  C3  UNL     1      -2.753  -1.288   0.699  0.00  0.00    +0.000 A 
ATOM      6  C4  UNL     1      -3.532  -2.148   1.450  0.00  0.00    +0.000 A 
ATOM      7  C5  UNL     1      -4.880  -1.913   1.513  0.00  0.00    +0.000 A 
ATOM      8  C6  UNL     1      -5.409  -0.831   0.825  0.00  0.00    +0.000 A 
ATOM      9  C7  UNL     1      -6.786  -0.643   0.926  0.00  0.00    +0.000 A 
ATOM     10  C8  UNL     1      -7.366   0.424   0.259  0.00  0.00    +0.000 A 
ATOM     11  C9  UNL     1      -6.564   1.265  -0.481  0.00  0.00    +0.000 A 
ATOM     12  C10 UNL     1      -5.188   1.088  -0.590  0.00  0.00    +0.000 A 
ATOM     13  C11 UNL     1      -4.623   0.016   0.084  0.00  0.00    +0.000 A 
ENDBRANCH   3   4
ENDBRANCH   1   3
BRANCH   1  14
ATOM     14  C12 UNL     1      -0.310   0.788   0.368  0.00  0.00    +0.000 C 
BRANCH  14  15
ATOM     15  C13 UNL     1       1.106   0.326   0.244  0.00  0.00    +0.000 C 
ATOM     16  C14 UNL     1       2.054   1.241   0.281  0.00  0.00    +0.000 C 
BRANCH  16  17
ATOM     17  C15 UNL     1       3.445   0.857   0.166  0.00  0.00    +0.000 C 
ATOM     18  C16 UNL     1       4.601   0.541   0.059  0.00  0.00    +0.000 C 
BRANCH  18  19
ATOM     19  C17 UNL     1       5.992   0.141  -0.067  0.00  0.00    +0.000 C 
ATOM     20  C18 UNL     1       6.423  -0.411   1.294  0.00  0.00    +0.000 C 
ATOM     21  C19 UNL     1       6.899   1.340  -0.332  0.00  0.00    +0.000 C 
ATOM     22  C20 UNL     1       6.222  -0.934  -1.082  0.00  0.00    +0.000 C 
ENDBRANCH  18  19
ENDBRANCH  16  17
ENDBRANCH  14  15
ENDBRANCH   1  14
TORSDOF 6
