REMARK  Name = ./3D_structures\o21_MMV1782110_3D.pdb
REMARK  6 active torsions:
REMARK  status: ('A' for Active; 'I' for Inactive)
REMARK    1  A    between atoms: C2_3  and  C3_4
REMARK    2  A    between atoms: C6_7  and  C7_8
REMARK    3  A    between atoms: C7_8  and  N1_9
REMARK    4  A    between atoms: C8_10  and  C9_12
REMARK    5  A    between atoms: C9_12  and  C10_13
REMARK    6  A    between atoms: C10_13  and  C11_14
REMARK                            x       y       z     vdW  Elec       q    Type
REMARK                         _______ _______ _______ _____ _____    ______ ____
ROOT
ATOM      1  N1  UNL     1      -0.331   2.257   1.003  0.00  0.00    +0.000 N 
ATOM      2  C8  UNL     1      -1.066   1.070   1.261  0.00  0.00    +0.000 C 
ATOM      3  O1  UNL     1      -0.711   0.204   2.088  0.00  0.00    +0.000 OA
ATOM      4  H5  UNL     1      -0.703   2.928   0.294  0.00  0.00    +0.000 HD
ENDROOT
BRANCH   1   5
ATOM      5  C7  UNL     1       0.888   2.532   1.693  0.00  0.00    +0.000 C 
BRANCH   5   9
ATOM      6  C3  UNL     1       4.292   0.258   0.378  0.00  0.00    +0.000 A 
ATOM      7  C4  UNL     1       3.584  -0.116   1.492  0.00  0.00    +0.000 A 
ATOM      8  C5  UNL     1       2.478   0.639   1.904  0.00  0.00    +0.000 A 
ATOM      9  C6  UNL     1       2.062   1.765   1.226  0.00  0.00    +0.000 A 
ATOM     10  C18 UNL     1       2.785   2.131   0.102  0.00  0.00    +0.000 A 
ATOM     11  C19 UNL     1       3.884   1.381  -0.309  0.00  0.00    +0.000 A 
BRANCH   6  14
ATOM     12  F1  UNL     1       6.232  -0.635   2.139  0.00  0.00    +0.000 F 
ATOM     13  C1  UNL     1       6.397  -0.942   0.839  0.00  0.00    +0.000 A 
ATOM     14  C2  UNL     1       5.446  -0.512  -0.072  0.00  0.00    +0.000 A 
ATOM     15  C20 UNL     1       5.608  -0.823  -1.405  0.00  0.00    +0.000 A 
ATOM     16  C21 UNL     1       6.705  -1.554  -1.826  0.00  0.00    +0.000 A 
ATOM     17  C22 UNL     1       7.664  -1.992  -0.930  0.00  0.00    +0.000 A 
ATOM     18  C23 UNL     1       7.476  -1.665   0.405  0.00  0.00    +0.000 A 
ENDBRANCH   6  14
ENDBRANCH   5   9
ENDBRANCH   1   5
BRANCH   2  19
ATOM     19  C9  UNL     1      -2.339   0.817   0.518  0.00  0.00    +0.000 C 
BRANCH  19  20
ATOM     20  C10 UNL     1      -2.968  -0.485   0.926  0.00  0.00    +0.000 C 
BRANCH  20  21
ATOM     21  C11 UNL     1      -4.230  -0.727   0.182  0.00  0.00    +0.000 A 
ATOM     22  C12 UNL     1      -5.437  -0.277   0.686  0.00  0.00    +0.000 A 
ATOM     23  C13 UNL     1      -6.610  -0.501  -0.003  0.00  0.00    +0.000 A 
ATOM     24  C14 UNL     1      -6.614  -1.178  -1.212  0.00  0.00    +0.000 A 
ATOM     25  O2  UNL     1      -7.941  -1.219  -1.612  0.00  0.00    +0.000 OA
ATOM     26  C15 UNL     1      -8.728  -0.340  -0.837  0.00  0.00    +0.000 C 
ATOM     27  O3  UNL     1      -7.908  -0.147   0.309  0.00  0.00    +0.000 OA
ATOM     28  C16 UNL     1      -5.407  -1.615  -1.693  0.00  0.00    +0.000 A 
ATOM     29  C17 UNL     1      -4.213  -1.404  -1.021  0.00  0.00    +0.000 A 
ENDBRANCH  20  21
ENDBRANCH  19  20
ENDBRANCH   2  19
TORSDOF 6
