REMARK  Name = ./3D_structures\o22_MMV1634493_3D.pdb
REMARK  5 active torsions:
REMARK  status: ('A' for Active; 'I' for Inactive)
REMARK    1  A    between atoms: C2_4  and  C4_6
REMARK    2  A    between atoms: C5_7  and  O1_8
REMARK    3  A    between atoms: O1_8  and  C6_9
REMARK    4  A    between atoms: C7_10  and  C13_16
REMARK    5  A    between atoms: C9_12  and  C10_13
REMARK                            x       y       z     vdW  Elec       q    Type
REMARK                         _______ _______ _______ _____ _____    ______ ____
ROOT
ATOM      1  C4  UNL     1       0.027   0.642  -0.046  0.00  0.00    +0.000 A 
ATOM      2  C5  UNL     1       1.387   0.638  -0.130  0.00  0.00    +0.000 A 
ATOM      3  C14 UNL     1       2.049   1.625  -0.854  0.00  0.00    +0.000 A 
ATOM      4  C15 UNL     1       1.317   2.594  -1.479  0.00  0.00    +0.000 A 
ATOM      5  C16 UNL     1      -0.068   2.622  -1.409  0.00  0.00    +0.000 A 
ATOM      6  C17 UNL     1      -0.704   1.644  -0.692  0.00  0.00    +0.000 A 
ENDROOT
BRANCH   1  10
ATOM      7  S1  UNL     1      -1.522  -2.316   2.101  0.00  0.00    +0.000 S 
ATOM      8  C1  UNL     1      -2.777  -1.145   1.369  0.00  0.00    +0.000 A 
ATOM      9  N1  UNL     1      -2.030  -0.398   0.804  0.00  0.00    +0.000 NA
ATOM     10  C2  UNL     1      -0.736  -0.401   0.725  0.00  0.00    +0.000 A 
ATOM     11  C3  UNL     1      -0.054  -1.399   1.373  0.00  0.00    +0.000 A 
ATOM     12  N2  UNL     1      -4.161  -1.348   1.597  0.00  0.00    +0.000 N 
ATOM     13  C18 UNL     1      -5.124  -0.439   1.031  0.00  0.00    +0.000 C 
ATOM     14  N3  UNL     1      -4.696   0.612   0.439  0.00  0.00    +0.000 NA
ATOM     15  C19 UNL     1      -5.640   1.541  -0.137  0.00  0.00    +0.000 C 
ATOM     16  C20 UNL     1      -6.809   0.823  -0.777  0.00  0.00    +0.000 C 
ATOM     17  C21 UNL     1      -7.433  -0.187   0.117  0.00  0.00    +0.000 C 
ATOM     18  N4  UNL     1      -6.513  -0.678   1.116  0.00  0.00    +0.000 N 
ATOM     19  H15 UNL     1      -4.466  -2.150   2.171  0.00  0.00    +0.000 HD
ATOM     20  H22 UNL     1      -6.879  -1.243   1.950  0.00  0.00    +0.000 HD
ENDBRANCH   1  10
BRANCH   2  21
ATOM     21  O1  UNL     1       2.132  -0.346   0.500  0.00  0.00    +0.000 OA
BRANCH  21  22
ATOM     22  C6  UNL     1       3.478  -0.524   0.467  0.00  0.00    +0.000 A 
ATOM     23  C7  UNL     1       4.182  -0.816  -0.671  0.00  0.00    +0.000 A 
ATOM     24  C8  UNL     1       5.564  -0.990  -0.650  0.00  0.00    +0.000 A 
ATOM     25  C9  UNL     1       6.260  -0.870   0.534  0.00  0.00    +0.000 A 
ATOM     26  C10 UNL     1       7.739  -1.055   0.559  0.00  0.00    +0.000 C 
ATOM     27  C11 UNL     1       5.563  -0.577   1.681  0.00  0.00    +0.000 A 
ATOM     28  C12 UNL     1       4.205  -0.410   1.639  0.00  0.00    +0.000 A 
ATOM     29  C13 UNL     1       3.454  -0.978  -1.962  0.00  0.00    +0.000 C 
ENDBRANCH  21  22
ENDBRANCH   2  21
TORSDOF 3
