REMARK  Name = ./3D_structures\o23_MMV344625_3D.pdb
REMARK  2 active torsions:
REMARK  status: ('A' for Active; 'I' for Inactive)
REMARK    1  A    between atoms: C1_2  and  O2_3
REMARK    2  A    between atoms: O2_3  and  C2_4
REMARK                            x       y       z     vdW  Elec       q    Type
REMARK                         _______ _______ _______ _____ _____    ______ ____
ROOT
ATOM      1  O1  UNL     1       2.469  -0.613  -1.045  0.00  0.00    +0.000 OA
ATOM      2  C1  UNL     1       2.728  -0.114   0.055  0.00  0.00    +0.000 C 
ATOM      3  N1  UNL     1       1.685   0.342   0.895  0.00  0.00    +0.000 N 
ATOM      4  C3  UNL     1       0.312   0.271   0.566  0.00  0.00    +0.000 A 
ATOM      5  N2  UNL     1      -0.674   0.709   1.373  0.00  0.00    +0.000 NA
ATOM      6  C4  UNL     1      -1.868   0.512   0.797  0.00  0.00    +0.000 A 
ATOM      7  C5  UNL     1      -1.645  -0.075  -0.427  0.00  0.00    +0.000 A 
ATOM      8  N3  UNL     1      -0.288  -0.199  -0.516  0.00  0.00    +0.000 N 
ATOM      9  C6  UNL     1      -2.699  -0.399  -1.256  0.00  0.00    +0.000 A 
ATOM     10  C7  UNL     1      -3.999  -0.135  -0.862  0.00  0.00    +0.000 A 
ATOM     11  C8  UNL     1      -4.259   0.451   0.359  0.00  0.00    +0.000 A 
ATOM     12  C9  UNL     1      -3.183   0.762   1.163  0.00  0.00    +0.000 A 
ATOM     13  H4  UNL     1       1.997   0.755   1.818  0.00  0.00    +0.000 HD
ATOM     14  H5  UNL     1       0.170  -0.621  -1.359  0.00  0.00    +0.000 HD
ENDROOT
BRANCH   2  15
ATOM     15  O2  UNL     1       4.069  -0.008   0.456  0.00  0.00    +0.000 OA
ATOM     16  C2  UNL     1       5.076  -0.477  -0.415  0.00  0.00    +0.000 C 
ENDBRANCH   2  15
TORSDOF 1
