REMARK  Name = ./3D_structures\o24_MMV1634358_3D.pdb
REMARK  12 active torsions:
REMARK  status: ('A' for Active; 'I' for Inactive)
REMARK    1  A    between atoms: C1_2  and  C21_23
REMARK    2  A    between atoms: N1_4  and  C3_5
REMARK    3  A    between atoms: C3_5  and  C4_6
REMARK    4  A    between atoms: C4_6  and  C5_7
REMARK    5  A    between atoms: C4_6  and  C17_19
REMARK    6  A    between atoms: C5_7  and  C6_8
REMARK    7  A    between atoms: C9_11  and  C10_12
REMARK    8  A    between atoms: C10_12  and  C11_13
REMARK    9  A    between atoms: C10_12  and  C13_15
REMARK   10  A    between atoms: C10_12  and  C14_16
REMARK   11  A    between atoms: C11_13  and  C12_14
REMARK   12  A    between atoms: C19_21  and  C20_22
REMARK                            x       y       z     vdW  Elec       q    Type
REMARK                         _______ _______ _______ _____ _____    ______ ____
ROOT
ATOM      1  C5  UNL     1       0.648  -0.464  -0.179  0.00  0.00    +0.000 C 
ENDROOT
BRANCH   1   2
ATOM      2  C6  UNL     1      -0.860  -0.596  -0.111  0.00  0.00    +0.000 A 
ATOM      3  C7  UNL     1      -1.527  -0.173   1.017  0.00  0.00    +0.000 A 
ATOM      4  C8  UNL     1      -2.872  -0.266   1.165  0.00  0.00    +0.000 A 
ATOM      5  C9  UNL     1      -3.630  -0.807   0.150  0.00  0.00    +0.000 A 
ATOM      6  C15 UNL     1      -2.985  -1.236  -0.986  0.00  0.00    +0.000 A 
ATOM      7  C16 UNL     1      -1.599  -1.138  -1.134  0.00  0.00    +0.000 A 
BRANCH   5   8
ATOM      8  C10 UNL     1      -5.096  -0.917   0.329  0.00  0.00    +0.000 C 
ATOM      9  C13 UNL     1      -5.483  -2.386   0.320  0.00  0.00    +0.000 C 
ATOM     10  C14 UNL     1      -5.505  -0.322   1.657  0.00  0.00    +0.000 C 
BRANCH   8  11
ATOM     11  C11 UNL     1      -5.779  -0.166  -0.788  0.00  0.00    +0.000 C 
ATOM     12  C12 UNL     1      -5.372   1.278  -0.753  0.00  0.00    +0.000 C 
ENDBRANCH   8  11
ENDBRANCH   5   8
ENDBRANCH   1   2
BRANCH   1  13
ATOM     13  C4  UNL     1       1.007   0.856  -0.768  0.00  0.00    +0.000 C 
ATOM     14  C17 UNL     1       0.205   1.998  -0.161  0.00  0.00    +0.000 C 
BRANCH  13  15
ATOM     15  C3  UNL     1       2.434   1.180  -0.934  0.00  0.00    +0.000 C 
BRANCH  15  19
ATOM     16  O1  UNL     1       5.238  -0.473  -0.793  0.00  0.00    +0.000 OA
ATOM     17  C1  UNL     1       4.153  -0.934  -0.138  0.00  0.00    +0.000 C 
ATOM     18  C2  UNL     1       3.696   0.095   0.869  0.00  0.00    +0.000 C 
ATOM     19  N1  UNL     1       3.314   1.244   0.151  0.00  0.00    +0.000 NA
ATOM     20  C18 UNL     1       4.560   1.840  -0.346  0.00  0.00    +0.000 C 
ATOM     21  C19 UNL     1       5.526   0.835  -0.855  0.00  0.00    +0.000 C 
ATOM     22  C20 UNL     1       6.902   1.051  -0.205  0.00  0.00    +0.000 C 
ATOM     23  C21 UNL     1       4.453  -2.214   0.642  0.00  0.00    +0.000 C 
ENDBRANCH  15  19
ENDBRANCH  13  15
ENDBRANCH   1  13
TORSDOF 6
