REMARK  Name = ./3D_structures\o25_MMV1578560_3D.pdb
REMARK  6 active torsions:
REMARK  status: ('A' for Active; 'I' for Inactive)
REMARK    1  A    between atoms: C1_2  and  C2_5
REMARK    2  A    between atoms: N2_7  and  C3_8
REMARK    3  A    between atoms: C6_11  and  N3_12
REMARK    4  A    between atoms: C7_13  and  C8_15
REMARK    5  A    between atoms: C8_15  and  N4_16
REMARK    6  A    between atoms: C11_19  and  C13_21
REMARK                            x       y       z     vdW  Elec       q    Type
REMARK                         _______ _______ _______ _____ _____    ______ ____
ROOT
ATOM      1  C2  UNL     1       0.617  -3.821   1.071  0.00  0.00    +0.000 A 
ATOM      2  N1  UNL     1       1.532  -2.934   0.696  0.00  0.00    +0.000 NA
ATOM      3  N2  UNL     1       0.958  -1.709   0.444  0.00  0.00    +0.000 N 
ATOM      4  C11 UNL     1      -0.327  -1.788   0.649  0.00  0.00    +0.000 A 
ATOM      5  C12 UNL     1      -0.569  -3.128   1.054  0.00  0.00    +0.000 A 
ENDROOT
BRANCH   4   6
ATOM      6  C13 UNL     1      -1.420  -0.837   0.402  0.00  0.00    +0.000 A 
ATOM      7  C14 UNL     1      -2.684  -1.341   0.226  0.00  0.00    +0.000 A 
ATOM      8  C15 UNL     1      -3.806  -0.584   0.059  0.00  0.00    +0.000 A 
ATOM      9  C16 UNL     1      -4.983  -1.259  -0.098  0.00  0.00    +0.000 A 
ATOM     10  C17 UNL     1      -6.118  -0.551  -0.266  0.00  0.00    +0.000 A 
ATOM     11  C18 UNL     1      -6.065   0.835  -0.280  0.00  0.00    +0.000 A 
ATOM     12  C19 UNL     1      -4.849   1.525  -0.115  0.00  0.00    +0.000 A 
ATOM     13  C20 UNL     1      -3.709   0.808   0.054  0.00  0.00    +0.000 A 
ATOM     14  C21 UNL     1      -2.444   1.337   0.229  0.00  0.00    +0.000 A 
ATOM     15  C22 UNL     1      -1.304   0.527   0.400  0.00  0.00    +0.000 A 
ATOM     16  C23 UNL     1      -4.781   2.880  -0.167  0.00  0.00    +0.000 A 
ATOM     17  C24 UNL     1      -5.925   3.617  -0.384  0.00  0.00    +0.000 A 
ATOM     18  C25 UNL     1      -7.131   2.930  -0.541  0.00  0.00    +0.000 A 
ATOM     19  C26 UNL     1      -7.188   1.567  -0.487  0.00  0.00    +0.000 A 
ENDBRANCH   4   6
BRANCH   3  20
ATOM     20  C3  UNL     1       1.864  -0.699   0.022  0.00  0.00    +0.000 A 
ATOM     21  C4  UNL     1       2.335   0.315   0.835  0.00  0.00    +0.000 A 
ATOM     22  C5  UNL     1       3.422   1.069   0.539  0.00  0.00    +0.000 A 
ATOM     23  C6  UNL     1       4.149   0.850  -0.638  0.00  0.00    +0.000 A 
ATOM     24  C9  UNL     1       3.698  -0.136  -1.479  0.00  0.00    +0.000 A 
ATOM     25  C10 UNL     1       2.597  -0.894  -1.169  0.00  0.00    +0.000 A 
BRANCH  23  26
ATOM     26  N3  UNL     1       5.443   1.481  -0.764  0.00  0.00    +0.000 N 
ATOM     27  C7  UNL     1       6.367   0.985   0.213  0.00  0.00    +0.000 C 
ATOM     28  O1  UNL     1       5.942   0.048   1.013  0.00  0.00    +0.000 OA
ATOM     29  H3  UNL     1       5.726   2.182  -1.428  0.00  0.00    +0.000 HD
BRANCH  27  30
ATOM     30  C8  UNL     1       7.732   1.409   0.401  0.00  0.00    +0.000 C 
BRANCH  30  31
ATOM     31  N4  UNL     1       8.228   2.462  -0.409  0.00  0.00    +0.000 NA
ATOM     32  H6  UNL     1       7.765   2.611  -1.320  0.00  0.00    +0.000 HD
ATOM     33  H7  UNL     1       8.182   3.373   0.151  0.00  0.00    +0.000 HD
ENDBRANCH  30  31
ENDBRANCH  27  30
ENDBRANCH  23  26
ENDBRANCH   3  20
BRANCH   1  35
ATOM     34  F1  UNL     1       1.941  -5.432   2.192  0.00  0.00    +0.000 F 
ATOM     35  C1  UNL     1       0.852  -5.272   1.377  0.00  0.00    +0.000 C 
ATOM     36  F2  UNL     1       1.040  -5.954   0.196  0.00  0.00    +0.000 F 
ATOM     37  F3  UNL     1      -0.313  -5.744   1.968  0.00  0.00    +0.000 F 
ENDBRANCH   1  35
TORSDOF 6
