REMARK  Name = ./3D_structures\o26_MMV640014_3D.pdb
REMARK  7 active torsions:
REMARK  status: ('A' for Active; 'I' for Inactive)
REMARK    1  A    between atoms: C1_2  and  O2_3
REMARK    2  A    between atoms: C1_2  and  C2_4
REMARK    3  A    between atoms: C5_7  and  N1_8
REMARK    4  A    between atoms: C6_10  and  C7_11
REMARK    5  A    between atoms: C8_12  and  O3_13
REMARK    6  A    between atoms: C13_19  and  C14_20
REMARK    7  A    between atoms: C15_21  and  O4_22
REMARK                            x       y       z     vdW  Elec       q    Type
REMARK                         _______ _______ _______ _____ _____    ______ ____
ROOT
ATOM      1  N1  UNL     1       0.152  -0.296   0.244  0.00  0.00    +0.000 N 
ATOM      2  N2  UNL     1      -0.901  -1.139   0.120  0.00  0.00    +0.000 NA
ATOM      3  C6  UNL     1      -2.023  -0.469  -0.091  0.00  0.00    +0.000 A 
ATOM      4  N3  UNL     1      -1.698   0.828  -0.104  0.00  0.00    +0.000 NA
ATOM      5  C13 UNL     1      -0.343   0.923   0.105  0.00  0.00    +0.000 A 
ENDROOT
BRANCH   1   9
ATOM      6  C2  UNL     1       4.067  -1.782   0.905  0.00  0.00    +0.000 A 
ATOM      7  C3  UNL     1       3.609  -1.583  -0.379  0.00  0.00    +0.000 A 
ATOM      8  C4  UNL     1       2.336  -1.089  -0.584  0.00  0.00    +0.000 A 
ATOM      9  C5  UNL     1       1.481  -0.777   0.479  0.00  0.00    +0.000 A 
ATOM     10  C20 UNL     1       1.979  -0.991   1.749  0.00  0.00    +0.000 A 
ATOM     11  C21 UNL     1       3.245  -1.483   1.970  0.00  0.00    +0.000 A 
BRANCH   6  13
ATOM     12  O1  UNL     1       5.801  -2.475   2.359  0.00  0.00    +0.000 OA
ATOM     13  C1  UNL     1       5.395  -2.299   1.183  0.00  0.00    +0.000 C 
BRANCH  13  14
ATOM     14  O2  UNL     1       6.272  -2.620   0.154  0.00  0.00    +0.000 OA
ATOM     15  H1  UNL     1       7.217  -2.969   0.332  0.00  0.00    +0.000 HD
ENDBRANCH  13  14
ENDBRANCH   6  13
ENDBRANCH   1   9
BRANCH   3  16
ATOM     16  C7  UNL     1      -3.387  -0.970  -0.281  0.00  0.00    +0.000 A 
ATOM     17  C8  UNL     1      -3.670  -2.330  -0.258  0.00  0.00    +0.000 A 
ATOM     18  C9  UNL     1      -4.953  -2.792  -0.437  0.00  0.00    +0.000 A 
ATOM     19  C10 UNL     1      -5.996  -1.924  -0.646  0.00  0.00    +0.000 A 
ATOM     20  C11 UNL     1      -5.731  -0.576  -0.671  0.00  0.00    +0.000 A 
ATOM     21  C12 UNL     1      -4.448  -0.117  -0.492  0.00  0.00    +0.000 A 
BRANCH  17  22
ATOM     22  O3  UNL     1      -2.652  -3.229  -0.052  0.00  0.00    +0.000 OA
ATOM     23  H4  UNL     1      -2.832  -4.212  -0.031  0.00  0.00    +0.000 HD
ENDBRANCH  17  22
ENDBRANCH   3  16
BRANCH   5  24
ATOM     24  C14 UNL     1       0.356   2.216   0.150  0.00  0.00    +0.000 A 
ATOM     25  C15 UNL     1      -0.397   3.362  -0.030  0.00  0.00    +0.000 A 
ATOM     26  C16 UNL     1       0.180   4.608  -0.003  0.00  0.00    +0.000 A 
ATOM     27  C17 UNL     1       1.544   4.714   0.211  0.00  0.00    +0.000 A 
ATOM     28  C18 UNL     1       2.290   3.579   0.390  0.00  0.00    +0.000 A 
ATOM     29  C19 UNL     1       1.693   2.337   0.359  0.00  0.00    +0.000 A 
BRANCH  25  30
ATOM     30  O4  UNL     1      -1.774   3.293  -0.248  0.00  0.00    +0.000 OA
ATOM     31  H9  UNL     1      -2.304   4.124  -0.377  0.00  0.00    +0.000 HD
ENDBRANCH  25  30
ENDBRANCH   5  24
TORSDOF 7
