REMARK  Name = ./3D_structures\o27_MMV004508_3D.pdb
REMARK  2 active torsions:
REMARK  status: ('A' for Active; 'I' for Inactive)
REMARK    1  A    between atoms: C2_3  and  N3_9
REMARK    2  A    between atoms: C3_5  and  O1_6
REMARK                            x       y       z     vdW  Elec       q    Type
REMARK                         _______ _______ _______ _____ _____    ______ ____
ROOT
ATOM      1  F1  UNL     1      -1.861   1.580   0.710  0.00  0.00    +0.000 F 
ATOM      2  C1  UNL     1      -0.732   0.932   0.289  0.00  0.00    +0.000 A 
ATOM      3  C2  UNL     1      -0.775  -0.428   0.047  0.00  0.00    +0.000 A 
ATOM      4  N1  UNL     1       0.381  -0.995  -0.367  0.00  0.00    +0.000 NA
ATOM      5  C3  UNL     1       1.516  -0.283  -0.537  0.00  0.00    +0.000 A 
ATOM      6  N2  UNL     1       1.512   1.031  -0.291  0.00  0.00    +0.000 NA
ATOM      7  C4  UNL     1       0.397   1.693   0.130  0.00  0.00    +0.000 A 
ENDROOT
BRANCH   3   8
ATOM      8  N3  UNL     1      -1.975  -1.175   0.227  0.00  0.00    +0.000 N 
ATOM      9  H3  UNL     1      -2.170  -1.548   1.171  0.00  0.00    +0.000 HD
ATOM     10  H4  UNL     1      -2.661  -1.367  -0.522  0.00  0.00    +0.000 HD
ENDBRANCH   3   8
BRANCH   5  11
ATOM     11  O1  UNL     1       2.705  -0.884  -0.966  0.00  0.00    +0.000 OA
ATOM     12  H1  UNL     1       3.255  -1.316  -0.216  0.00  0.00    +0.000 HD
ENDBRANCH   5  11
TORSDOF 2
