REMARK  Name = ./3D_structures\o28_MMV1782212_3D.pdb
REMARK  5 active torsions:
REMARK  status: ('A' for Active; 'I' for Inactive)
REMARK    1  A    between atoms: C1_1  and  C2_2
REMARK    2  A    between atoms: C2_2  and  C3_3
REMARK    3  A    between atoms: C2_2  and  C4_4
REMARK    4  A    between atoms: C2_2  and  C5_5
REMARK    5  A    between atoms: C8_8  and  C11_11
REMARK                            x       y       z     vdW  Elec       q    Type
REMARK                         _______ _______ _______ _____ _____    ______ ____
ROOT
ATOM      1  C11 UNL     1       0.123   1.289  -0.007  0.00  0.00    +0.000 C 
ATOM      2  O1  UNL     1      -0.155   2.499  -0.262  0.00  0.00    +0.000 OA
ATOM      3  N1  UNL     1      -0.953   0.385   0.194  0.00  0.00    +0.000 N 
ATOM      4  C12 UNL     1      -2.326   0.818   0.023  0.00  0.00    +0.000 C 
ATOM      5  O2  UNL     1      -2.469   2.037  -0.288  0.00  0.00    +0.000 OA
ATOM      6  N2  UNL     1      -3.381  -0.099   0.201  0.00  0.00    +0.000 N 
ATOM      7  C13 UNL     1      -3.133  -1.453   0.591  0.00  0.00    +0.000 C 
ATOM      8  C14 UNL     1      -4.342  -2.340   0.308  0.00  0.00    +0.000 C 
ATOM      9  C15 UNL     1      -5.134  -1.843  -0.887  0.00  0.00    +0.000 C 
ATOM     10  C16 UNL     1      -5.644  -0.481  -0.601  0.00  0.00    +0.000 A 
ATOM     11  C17 UNL     1      -6.915  -0.075  -0.852  0.00  0.00    +0.000 A 
ATOM     12  C18 UNL     1      -7.303   1.229  -0.540  0.00  0.00    +0.000 A 
ATOM     13  C19 UNL     1      -6.382   2.099   0.027  0.00  0.00    +0.000 A 
ATOM     14  C20 UNL     1      -5.100   1.670   0.275  0.00  0.00    +0.000 A 
ATOM     15  C21 UNL     1      -4.710   0.386  -0.032  0.00  0.00    +0.000 A 
ATOM     16  H14 UNL     1      -0.748  -0.592   0.441  0.00  0.00    +0.000 HD
ENDROOT
BRANCH   1  20
ATOM     17  C5  UNL     1       4.226   0.156   0.185  0.00  0.00    +0.000 A 
ATOM     18  C6  UNL     1       3.248  -0.796  -0.045  0.00  0.00    +0.000 A 
ATOM     19  C7  UNL     1       1.914  -0.428  -0.104  0.00  0.00    +0.000 A 
ATOM     20  C8  UNL     1       1.526   0.892   0.064  0.00  0.00    +0.000 A 
ATOM     21  C9  UNL     1       2.532   1.816   0.293  0.00  0.00    +0.000 A 
ATOM     22  C10 UNL     1       3.880   1.479   0.357  0.00  0.00    +0.000 A 
BRANCH  17  24
ATOM     23  C1  UNL     1       6.502   0.997  -0.115  0.00  0.00    +0.000 C 
ATOM     24  C2  UNL     1       5.662  -0.203   0.256  0.00  0.00    +0.000 C 
ATOM     25  C3  UNL     1       6.016  -0.538   1.710  0.00  0.00    +0.000 C 
ATOM     26  C4  UNL     1       6.040  -1.340  -0.663  0.00  0.00    +0.000 C 
ENDBRANCH  17  24
ENDBRANCH   1  20
TORSDOF 2
