REMARK  Name = ./3D_structures\o29_MMV1782227_3D.pdb
REMARK  5 active torsions:
REMARK  status: ('A' for Active; 'I' for Inactive)
REMARK    1  A    between atoms: C4_5  and  N1_6
REMARK    2  A    between atoms: N1_6  and  C5_7
REMARK    3  A    between atoms: C5_7  and  N2_9
REMARK    4  A    between atoms: N2_9  and  N3_10
REMARK    5  A    between atoms: C6_11  and  C7_13
REMARK                            x       y       z     vdW  Elec       q    Type
REMARK                         _______ _______ _______ _____ _____    ______ ____
ROOT
ATOM      1  N2  UNL     1      -0.163   0.739  -1.186  0.00  0.00    +0.000 N 
ATOM      2  H4  UNL     1       0.024   1.499  -1.874  0.00  0.00    +0.000 HD
ENDROOT
BRANCH   1   3
ATOM      3  N3  UNL     1      -1.436   0.323  -0.846  0.00  0.00    +0.000 N 
ATOM      4  C6  UNL     1      -2.532   1.168  -0.641  0.00  0.00    +0.000 C 
ATOM      5  O1  UNL     1      -2.320   2.413  -0.782  0.00  0.00    +0.000 OA
ATOM      6  H5  UNL     1      -1.562  -0.712  -0.741  0.00  0.00    +0.000 HD
BRANCH   4   7
ATOM      7  C7  UNL     1      -3.853   0.665  -0.284  0.00  0.00    +0.000 A 
ATOM      8  C8  UNL     1      -4.120  -0.666  -0.107  0.00  0.00    +0.000 A 
ATOM      9  C9  UNL     1      -5.398  -1.136   0.236  0.00  0.00    +0.000 A 
ATOM     10  N4  UNL     1      -6.352  -0.226   0.386  0.00  0.00    +0.000 NA
ATOM     11  C10 UNL     1      -6.137   1.091   0.223  0.00  0.00    +0.000 A 
ATOM     12  C11 UNL     1      -4.896   1.565  -0.112  0.00  0.00    +0.000 A 
ENDBRANCH   4   7
ENDBRANCH   1   3
BRANCH   1  13
ATOM     13  C5  UNL     1       0.958   0.073  -0.542  0.00  0.00    +0.000 C 
ATOM     14  S1  UNL     1       0.599  -1.066   0.543  0.00  0.00    +0.000 S 
BRANCH  13  15
ATOM     15  N1  UNL     1       2.277   0.465  -0.860  0.00  0.00    +0.000 N 
ATOM     16  H3  UNL     1       2.353   1.264  -1.569  0.00  0.00    +0.000 HD
BRANCH  15  21
ATOM     17 CL1  UNL     1       7.249  -1.811   1.344  0.00  0.00    +0.000 Cl
ATOM     18  C1  UNL     1       5.747  -1.162   0.700  0.00  0.00    +0.000 A 
ATOM     19  C2  UNL     1       5.711   0.162   0.304  0.00  0.00    +0.000 A 
ATOM     20  C3  UNL     1       4.544   0.692  -0.203  0.00  0.00    +0.000 A 
ATOM     21  C4  UNL     1       3.407  -0.128  -0.308  0.00  0.00    +0.000 A 
ATOM     22  C12 UNL     1       3.444  -1.429   0.081  0.00  0.00    +0.000 A 
ATOM     23  C13 UNL     1       4.634  -1.966   0.598  0.00  0.00    +0.000 A 
ENDBRANCH  15  21
ENDBRANCH  13  15
ENDBRANCH   1  13
TORSDOF 5
