REMARK  Name = ./3D_structures\o2_MMV1782108_3D.pdb
REMARK  7 active torsions:
REMARK  status: ('A' for Active; 'I' for Inactive)
REMARK    1  A    between atoms: S1_1  and  N1_4
REMARK    2  A    between atoms: S1_1  and  C5_11
REMARK    3  A    between atoms: C2_8  and  C4_10
REMARK    4  A    between atoms: C8_14  and  C9_15
REMARK    5  A    between atoms: C9_15  and  C10_16
REMARK    6  A    between atoms: C10_16  and  C11_17
REMARK    7  A    between atoms: C11_17  and  C12_18
REMARK                            x       y       z     vdW  Elec       q    Type
REMARK                         _______ _______ _______ _____ _____    ______ ____
ROOT
ATOM      1  S1  UNL     1       1.770   2.060  -1.771  0.00  0.00    +0.000 S 
ATOM      2  O1  UNL     1       1.264   2.874  -2.932  0.00  0.00    +0.000 OA
ATOM      3  O2  UNL     1       2.181   2.954  -0.632  0.00  0.00    +0.000 OA
ENDROOT
BRANCH   1   4
ATOM      4  N1  UNL     1       3.071   1.079  -2.285  0.00  0.00    +0.000 N 
ATOM      5  C1  UNL     1       3.802   0.214  -1.452  0.00  0.00    +0.000 A 
ATOM      6  N2  UNL     1       4.832  -0.595  -1.833  0.00  0.00    +0.000 NA
ATOM      7  O3  UNL     1       5.296  -1.247  -0.820  0.00  0.00    +0.000 OA
ATOM      8  C2  UNL     1       4.636  -0.933   0.263  0.00  0.00    +0.000 A 
ATOM      9  C3  UNL     1       3.669   0.006  -0.120  0.00  0.00    +0.000 A 
ATOM     10  C4  UNL     1       4.777  -1.397   1.664  0.00  0.00    +0.000 C 
ATOM     11  H1  UNL     1       3.381   1.098  -3.313  0.00  0.00    +0.000 HD
ENDBRANCH   1   4
BRANCH   1  12
ATOM     12  C5  UNL     1       0.460   1.064  -1.174  0.00  0.00    +0.000 A 
ATOM     13  C6  UNL     1      -0.394   0.413  -2.077  0.00  0.00    +0.000 A 
ATOM     14  C7  UNL     1      -1.444  -0.357  -1.636  0.00  0.00    +0.000 A 
ATOM     15  C8  UNL     1      -1.726  -0.541  -0.299  0.00  0.00    +0.000 A 
ATOM     16  C13 UNL     1      -0.885   0.099   0.585  0.00  0.00    +0.000 A 
ATOM     17  C14 UNL     1       0.175   0.877   0.158  0.00  0.00    +0.000 A 
BRANCH  15  18
ATOM     18  C9  UNL     1      -2.862  -1.377   0.134  0.00  0.00    +0.000 C 
BRANCH  18  19
ATOM     19  C10 UNL     1      -4.139  -0.610   0.279  0.00  0.00    +0.000 C 
BRANCH  19  20
ATOM     20  C11 UNL     1      -4.100   0.501   1.273  0.00  0.00    +0.000 C 
ATOM     21  C12 UNL     1      -3.789   0.078   2.671  0.00  0.00    +0.000 C 
ENDBRANCH  19  20
ENDBRANCH  18  19
ENDBRANCH  15  18
ENDBRANCH   1  12
TORSDOF 5
