REMARK  Name = ./3D_structures\o30_MMV1782226_3D.pdb
REMARK  1 active torsions:
REMARK  status: ('A' for Active; 'I' for Inactive)
REMARK    1  A    between atoms: O1_1  and  B1_2
REMARK                            x       y       z     vdW  Elec       q    Type
REMARK                         _______ _______ _______ _____ _____    ______ ____
ROOT
ATOM      1  B1  UNL     1      -1.932  -0.678   0.078  0.00  0.00    +0.000 B 
ATOM      2  O2  UNL     1      -2.352   0.684   0.483  0.00  0.00    +0.000 OA
ATOM      3  C1  UNL     1      -1.444   1.470  -0.220  0.00  0.00    +0.000 C 
ATOM      4  C2  UNL     1      -0.127   0.807  -0.168  0.00  0.00    +0.000 A 
ATOM      5  C3  UNL     1       1.191   1.201  -0.256  0.00  0.00    +0.000 A 
ATOM      6  F1  UNL     1       1.411   2.542  -0.433  0.00  0.00    +0.000 F 
ATOM      7  C4  UNL     1       2.252   0.345  -0.177  0.00  0.00    +0.000 A 
ATOM      8 CL1  UNL     1       3.896   0.930  -0.298  0.00  0.00    +0.000 Cl
ATOM      9  C5  UNL     1       2.000  -1.003   0.001  0.00  0.00    +0.000 A 
ATOM     10  C6  UNL     1       0.685  -1.435   0.094  0.00  0.00    +0.000 A 
ATOM     11  C7  UNL     1      -0.360  -0.539   0.010  0.00  0.00    +0.000 A 
ENDROOT
BRANCH   1  12
ATOM     12  O1  UNL     1      -2.593  -1.942   0.389  0.00  0.00    +0.000 OA
ATOM     13  H1  UNL     1      -2.642  -2.146   1.335  0.00  0.00    +0.000 HD
ENDBRANCH   1  12
TORSDOF 1
