REMARK  Name = ./3D_structures\o31_MMV1782221_3D.pdb
REMARK  6 active torsions:
REMARK  status: ('A' for Active; 'I' for Inactive)
REMARK    1  A    between atoms: C1_1  and  C2_2
REMARK    2  A    between atoms: C2_2  and  N1_3
REMARK    3  A    between atoms: C2_2  and  C11_12
REMARK    4  A    between atoms: N1_3  and  C3_4
REMARK    5  A    between atoms: N1_3  and  C4_5
REMARK    6  A    between atoms: C4_5  and  C5_6
REMARK                            x       y       z     vdW  Elec       q    Type
REMARK                         _______ _______ _______ _____ _____    ______ ____
ROOT
ATOM      1  C1  UNL     1       0.286  -2.188  -0.495  0.00  0.00    +0.000 C 
ATOM      2  C2  UNL     1       0.399  -0.642  -0.433  0.00  0.00    +0.000 C 
ENDROOT
BRANCH   2   3
ATOM      3  C11 UNL     1       1.436  -0.167   0.457  0.00  0.00    +0.000 A 
ATOM      4  C12 UNL     1       1.320   0.251   1.754  0.00  0.00    +0.000 A 
ATOM      5  C13 UNL     1       2.384   0.767   2.505  0.00  0.00    +0.000 A 
ATOM      6  C14 UNL     1       3.605   0.853   1.896  0.00  0.00    +0.000 A 
ATOM      7  C15 UNL     1       3.778   0.448   0.596  0.00  0.00    +0.000 A 
ATOM      8  C16 UNL     1       5.073   0.528   0.028  0.00  0.00    +0.000 A 
ATOM      9  C17 UNL     1       5.262   0.098  -1.254  0.00  0.00    +0.000 A 
ATOM     10  C18 UNL     1       4.188  -0.414  -1.992  0.00  0.00    +0.000 A 
ATOM     11  C19 UNL     1       2.911  -0.501  -1.450  0.00  0.00    +0.000 A 
ATOM     12  C20 UNL     1       2.742  -0.056  -0.141  0.00  0.00    +0.000 A 
ENDBRANCH   2   3
BRANCH   2  13
ATOM     13  N1  UNL     1      -0.945  -0.286  -0.047  0.00  0.00    +0.000 NA
ATOM     14  C3  UNL     1      -1.424  -0.876   1.156  0.00  0.00    +0.000 C 
BRANCH  13  15
ATOM     15  C4  UNL     1      -1.420   0.996  -0.396  0.00  0.00    +0.000 C 
BRANCH  15  16
ATOM     16  C5  UNL     1      -2.911   0.876  -0.475  0.00  0.00    +0.000 A 
ATOM     17  C6  UNL     1      -3.729   1.860  -0.083  0.00  0.00    +0.000 A 
ATOM     18  C7  UNL     1      -5.111   1.701  -0.218  0.00  0.00    +0.000 A 
ATOM     19  C8  UNL     1      -5.629   0.528  -0.756  0.00  0.00    +0.000 A 
ATOM     20  C9  UNL     1      -4.779  -0.496  -1.166  0.00  0.00    +0.000 A 
ATOM     21  C10 UNL     1      -3.450  -0.292  -1.012  0.00  0.00    +0.000 A 
ENDBRANCH  15  16
ENDBRANCH  13  15
ENDBRANCH   2  13
TORSDOF 4
