REMARK  Name = ./3D_structures\o32_MMV1782224_3D.pdb
REMARK  3 active torsions:
REMARK  status: ('A' for Active; 'I' for Inactive)
REMARK    1  A    between atoms: C4_5  and  C5_6
REMARK    2  A    between atoms: C8_10  and  C9_11
REMARK    3  A    between atoms: C8_10  and  N2_13
REMARK                            x       y       z     vdW  Elec       q    Type
REMARK                         _______ _______ _______ _____ _____    ______ ____
ROOT
ATOM      1  C5  UNL     1       1.098   0.024  -0.905  0.00  0.00    +0.000 C 
ATOM      2  C6  UNL     1       0.231  -0.617  -1.852  0.00  0.00    +0.000 C 
ATOM      3  S1  UNL     1      -1.368  -1.005  -1.003  0.00  0.00    +0.000 S 
ATOM      4  C7  UNL     1      -1.457   0.272   0.167  0.00  0.00    +0.000 C 
ATOM      5  C8  UNL     1      -2.403   0.924   0.821  0.00  0.00    +0.000 C 
ATOM      6  S2  UNL     1       0.289   0.560   0.594  0.00  0.00    +0.000 S 
ENDROOT
BRANCH   1  11
ATOM      7 CL1  UNL     1       6.914  -0.861   0.281  0.00  0.00    +0.000 Cl
ATOM      8  C1  UNL     1       5.208  -0.685  -0.090  0.00  0.00    +0.000 A 
ATOM      9  C2  UNL     1       4.850   0.090  -1.204  0.00  0.00    +0.000 A 
ATOM     10  C3  UNL     1       3.508   0.271  -1.523  0.00  0.00    +0.000 A 
ATOM     11  C4  UNL     1       2.496  -0.311  -0.736  0.00  0.00    +0.000 A 
ATOM     12  C13 UNL     1       2.888  -1.085   0.371  0.00  0.00    +0.000 A 
ATOM     13 CL2  UNL     1       1.655  -1.881   1.364  0.00  0.00    +0.000 Cl
ATOM     14  C14 UNL     1       4.206  -1.265   0.684  0.00  0.00    +0.000 A 
ENDBRANCH   1  11
BRANCH   5  15
ATOM     15  N2  UNL     1      -3.754   0.538   0.664  0.00  0.00    +0.000 N 
ATOM     16  C10 UNL     1      -4.436   0.383  -0.462  0.00  0.00    +0.000 A 
ATOM     17  C11 UNL     1      -5.730   0.035  -0.222  0.00  0.00    +0.000 A 
ATOM     18  N3  UNL     1      -5.855  -0.022   1.131  0.00  0.00    +0.000 NA
ATOM     19  C12 UNL     1      -4.626   0.283   1.662  0.00  0.00    +0.000 A 
ENDBRANCH   5  15
BRANCH   5  20
ATOM     20  C9  UNL     1      -2.087   1.966   1.731  0.00  0.00    +0.000 C 
ATOM     21  N1  UNL     1      -1.799   2.857   2.529  0.00  0.00    +0.000 NA
ENDBRANCH   5  20
TORSDOF 3
