REMARK  Name = ./3D_structures\o33_MMV1782223_3D.pdb
REMARK  3 active torsions:
REMARK  status: ('A' for Active; 'I' for Inactive)
REMARK    1  A    between atoms: C1_1  and  N1_2
REMARK    2  A    between atoms: N1_2  and  C2_3
REMARK    3  A    between atoms: N1_2  and  C3_4
REMARK                            x       y       z     vdW  Elec       q    Type
REMARK                         _______ _______ _______ _____ _____    ______ ____
ROOT
ATOM      1  C3  UNL     1       0.288   0.094  -0.038  0.00  0.00    +0.000 A 
ATOM      2  C4  UNL     1       0.856   1.350  -0.060  0.00  0.00    +0.000 A 
ATOM      3  F1  UNL     1       0.059   2.435  -0.066  0.00  0.00    +0.000 F 
ATOM      4  C5  UNL     1       2.234   1.509  -0.073  0.00  0.00    +0.000 A 
ATOM      5  N2  UNL     1       3.016   0.402  -0.064  0.00  0.00    +0.000 NA
ATOM      6  C6  UNL     1       2.472  -0.825  -0.043  0.00  0.00    +0.000 A 
ATOM      7  O1  UNL     1       3.202  -1.872  -0.033  0.00  0.00    +0.000 OA
ATOM      8  N3  UNL     1       1.124  -0.965  -0.031  0.00  0.00    +0.000 N 
ATOM      9  H8  UNL     1       0.757  -1.954  -0.010  0.00  0.00    +0.000 HD
ENDROOT
BRANCH   1  11
ATOM     10  C1  UNL     1      -1.933   0.084  -1.122  0.00  0.00    +0.000 C 
ATOM     11  N1  UNL     1      -1.099  -0.136   0.004  0.00  0.00    +0.000 N 
ATOM     12  C2  UNL     1      -1.662  -0.622   1.240  0.00  0.00    +0.000 C 
ENDBRANCH   1  11
TORSDOF 1
