REMARK  Name = ./3D_structures\o34_MMV1782218_3D.pdb
REMARK  1 active torsions:
REMARK  status: ('A' for Active; 'I' for Inactive)
REMARK    1  A    between atoms: C4_5  and  C5_6
REMARK                            x       y       z     vdW  Elec       q    Type
REMARK                         _______ _______ _______ _____ _____    ______ ____
ROOT
ATOM      1  C5  UNL     1       2.385   0.657   0.486  0.00  0.00    +0.000 C 
ATOM      2  O1  UNL     1       2.303   1.702   1.210  0.00  0.00    +0.000 OA
ATOM      3  N1  UNL     1       1.153   0.064   0.089  0.00  0.00    +0.000 N 
ATOM      4  C6  UNL     1      -0.115   0.619   0.487  0.00  0.00    +0.000 C 
ATOM      5  O2  UNL     1      -0.084   1.648   1.198  0.00  0.00    +0.000 OA
ATOM      6  N2  UNL     1      -1.330   0.015   0.082  0.00  0.00    +0.000 N 
ATOM      7  C7  UNL     1      -1.282  -1.128  -0.792  0.00  0.00    +0.000 C 
ATOM      8  C8  UNL     1      -2.606  -1.409  -1.458  0.00  0.00    +0.000 C 
ATOM      9  C9  UNL     1      -3.435  -0.146  -1.668  0.00  0.00    +0.000 C 
ATOM     10  C10 UNL     1      -3.648   0.459  -0.347  0.00  0.00    +0.000 A 
ATOM     11  C11 UNL     1      -4.863   0.953   0.058  0.00  0.00    +0.000 A 
ATOM     12  C12 UNL     1      -5.025   1.520   1.330  0.00  0.00    +0.000 A 
ATOM     13  C13 UNL     1      -3.939   1.572   2.167  0.00  0.00    +0.000 A 
ATOM     14  C14 UNL     1      -2.703   1.076   1.772  0.00  0.00    +0.000 A 
ATOM     15  C15 UNL     1      -2.577   0.525   0.513  0.00  0.00    +0.000 A 
ATOM     16  H3  UNL     1       1.135  -0.790  -0.501  0.00  0.00    +0.000 HD
ENDROOT
BRANCH   1  21
ATOM     17 CL1  UNL     1       7.689  -1.805  -0.963  0.00  0.00    +0.000 Cl
ATOM     18  C1  UNL     1       6.151  -1.086  -0.550  0.00  0.00    +0.000 A 
ATOM     19  C2  UNL     1       5.480  -1.435   0.598  0.00  0.00    +0.000 A 
ATOM     20  C3  UNL     1       4.262  -0.854   0.909  0.00  0.00    +0.000 A 
ATOM     21  C4  UNL     1       3.669   0.096   0.084  0.00  0.00    +0.000 A 
ATOM     22  C16 UNL     1       4.346   0.437  -1.057  0.00  0.00    +0.000 A 
ATOM     23 CL2  UNL     1       3.645   1.624  -2.124  0.00  0.00    +0.000 Cl
ATOM     24  C17 UNL     1       5.558  -0.133  -1.377  0.00  0.00    +0.000 A 
ENDBRANCH   1  21
TORSDOF 1
