REMARK  Name = ./3D_structures\o35_MMV1782217_3D.pdb
REMARK  4 active torsions:
REMARK  status: ('A' for Active; 'I' for Inactive)
REMARK    1  A    between atoms: C1_1  and  C2_2
REMARK    2  A    between atoms: N2_6  and  S1_7
REMARK    3  A    between atoms: S1_7  and  C4_10
REMARK    4  A    between atoms: C7_13  and  C10_16
REMARK                            x       y       z     vdW  Elec       q    Type
REMARK                         _______ _______ _______ _____ _____    ______ ____
ROOT
ATOM      1  C4  UNL     1       0.292  -1.843  -0.171  0.00  0.00    +0.000 A 
ATOM      2  C5  UNL     1      -0.666  -1.741  -1.152  0.00  0.00    +0.000 A 
ATOM      3  C6  UNL     1      -1.777  -0.993  -0.930  0.00  0.00    +0.000 A 
ATOM      4  C7  UNL     1      -2.016  -0.310   0.249  0.00  0.00    +0.000 A 
ATOM      5  C8  UNL     1      -1.061  -0.409   1.235  0.00  0.00    +0.000 A 
ATOM      6  C9  UNL     1       0.086  -1.179   1.011  0.00  0.00    +0.000 A 
ENDROOT
BRANCH   4   7
ATOM      7  C10 UNL     1      -3.235   0.461   0.387  0.00  0.00    +0.000 A 
ATOM      8  C11 UNL     1      -3.974   0.375   1.544  0.00  0.00    +0.000 A 
ATOM      9  C12 UNL     1      -5.155   1.108   1.706  0.00  0.00    +0.000 A 
ATOM     10  C13 UNL     1      -5.603   1.940   0.693  0.00  0.00    +0.000 A 
ATOM     11  F1  UNL     1      -6.757   2.665   0.835  0.00  0.00    +0.000 F 
ATOM     12  C14 UNL     1      -4.865   2.025  -0.459  0.00  0.00    +0.000 A 
ATOM     13  C15 UNL     1      -3.705   1.295  -0.598  0.00  0.00    +0.000 A 
ATOM     14  F2  UNL     1      -2.964   1.375  -1.745  0.00  0.00    +0.000 F 
ENDBRANCH   4   7
BRANCH   1  15
ATOM     15  S1  UNL     1       1.703  -2.798  -0.451  0.00  0.00    +0.000 S 
ATOM     16  O2  UNL     1       2.259  -3.288   0.859  0.00  0.00    +0.000 OA
ATOM     17  O3  UNL     1       1.412  -3.983  -1.345  0.00  0.00    +0.000 OA
BRANCH  15  23
ATOM     18  C1  UNL     1       5.651   2.212  -0.079  0.00  0.00    +0.000 C 
ATOM     19  C2  UNL     1       4.679   1.085  -0.025  0.00  0.00    +0.000 A 
ATOM     20  O1  UNL     1       3.857   0.812   0.952  0.00  0.00    +0.000 OA
ATOM     21  N1  UNL     1       3.141  -0.243   0.685  0.00  0.00    +0.000 NA
ATOM     22  C3  UNL     1       3.456  -0.745  -0.520  0.00  0.00    +0.000 A 
ATOM     23  N2  UNL     1       2.940  -1.873  -1.213  0.00  0.00    +0.000 N 
ATOM     24  C16 UNL     1       4.458   0.118  -0.983  0.00  0.00    +0.000 A 
ATOM     25  H4  UNL     1       3.320  -2.108  -2.158  0.00  0.00    +0.000 HD
ENDBRANCH  15  23
ENDBRANCH   1  15
TORSDOF 3
