REMARK  Name = ./3D_structures\o36_MMV1782216_3D.pdb
REMARK  7 active torsions:
REMARK  status: ('A' for Active; 'I' for Inactive)
REMARK    1  A    between atoms: C1_1  and  C2_2
REMARK    2  A    between atoms: C2_2  and  C3_3
REMARK    3  A    between atoms: C3_3  and  N1_4
REMARK    4  A    between atoms: N1_4  and  C4_5
REMARK    5  A    between atoms: C7_8  and  S1_11
REMARK    6  A    between atoms: S1_11  and  N2_14
REMARK    7  A    between atoms: C12_17  and  C13_18
REMARK                            x       y       z     vdW  Elec       q    Type
REMARK                         _______ _______ _______ _____ _____    ______ ____
ROOT
ATOM      1  C4  UNL     1       1.824  -0.859  -0.452  0.00  0.00    +0.000 A 
ATOM      2  C5  UNL     1       1.063   0.070   0.218  0.00  0.00    +0.000 A 
ATOM      3  C6  UNL     1      -0.107  -0.276   0.870  0.00  0.00    +0.000 A 
ATOM      4  C7  UNL     1      -0.564  -1.572   0.876  0.00  0.00    +0.000 A 
ATOM      5  C8  UNL     1       0.220  -2.508   0.190  0.00  0.00    +0.000 A 
ATOM      6  C9  UNL     1       1.383  -2.170  -0.459  0.00  0.00    +0.000 A 
ENDROOT
BRANCH   4   7
ATOM      7  S1  UNL     1      -2.017  -2.093   1.651  0.00  0.00    +0.000 S 
ATOM      8  O1  UNL     1      -2.364  -1.055   2.696  0.00  0.00    +0.000 OA
ATOM      9  O2  UNL     1      -1.764  -3.374   2.412  0.00  0.00    +0.000 OA
BRANCH   7  10
ATOM     10  N2  UNL     1      -3.363  -2.255   0.606  0.00  0.00    +0.000 N 
ATOM     11  C10 UNL     1      -3.941  -1.192  -0.133  0.00  0.00    +0.000 A 
ATOM     12  C11 UNL     1      -3.587   0.129  -0.169  0.00  0.00    +0.000 A 
ATOM     13  C12 UNL     1      -4.456   0.797  -1.041  0.00  0.00    +0.000 A 
ATOM     14  C13 UNL     1      -4.414   2.247  -1.361  0.00  0.00    +0.000 C 
ATOM     15  O3  UNL     1      -5.272  -0.130  -1.477  0.00  0.00    +0.000 OA
ATOM     16  N3  UNL     1      -5.010  -1.279  -0.982  0.00  0.00    +0.000 NA
ATOM     17  H13 UNL     1      -3.763  -3.240   0.537  0.00  0.00    +0.000 HD
ENDBRANCH   7  10
ENDBRANCH   4   7
BRANCH   1  18
ATOM     18  N1  UNL     1       3.030  -0.473  -1.103  0.00  0.00    +0.000 N 
ATOM     19  H8  UNL     1       3.463  -1.220  -1.733  0.00  0.00    +0.000 HD
BRANCH  18  20
ATOM     20  C3  UNL     1       3.631   0.813  -0.939  0.00  0.00    +0.000 C 
BRANCH  20  22
ATOM     21  C1  UNL     1       4.751   2.512   0.422  0.00  0.00    +0.000 C 
ATOM     22  C2  UNL     1       4.157   1.102   0.430  0.00  0.00    +0.000 C 
ENDBRANCH  20  22
ENDBRANCH  18  20
ENDBRANCH   1  18
TORSDOF 5
