REMARK  Name = ./3D_structures\o37_MMV1009286_3D.pdb
REMARK  7 active torsions:
REMARK  status: ('A' for Active; 'I' for Inactive)
REMARK    1  A    between atoms: C1_1  and  C2_2
REMARK    2  A    between atoms: C2_2  and  C3_3
REMARK    3  A    between atoms: C2_2  and  O1_4
REMARK    4  A    between atoms: O1_4  and  C4_5
REMARK    5  A    between atoms: C8_9  and  N1_10
REMARK    6  A    between atoms: C9_11  and  C10_13
REMARK    7  A    between atoms: C15_18  and  C16_19
REMARK                            x       y       z     vdW  Elec       q    Type
REMARK                         _______ _______ _______ _____ _____    ______ ____
ROOT
ATOM      1  N1  UNL     1      -1.298  -0.936   0.809  0.00  0.00    +0.000 N 
ATOM      2  C9  UNL     1      -1.878  -0.593  -0.428  0.00  0.00    +0.000 C 
ATOM      3  O2  UNL     1      -1.102  -0.465  -1.427  0.00  0.00    +0.000 OA
ATOM      4  H11 UNL     1      -1.911  -1.100   1.630  0.00  0.00    +0.000 HD
ENDROOT
BRANCH   1   9
ATOM      5  C4  UNL     1       2.393  -0.349   0.483  0.00  0.00    +0.000 A 
ATOM      6  C5  UNL     1       2.920  -1.292   1.338  0.00  0.00    +0.000 A 
ATOM      7  C6  UNL     1       2.036  -2.126   2.005  0.00  0.00    +0.000 A 
ATOM      8  C7  UNL     1       0.672  -2.031   1.832  0.00  0.00    +0.000 A 
ATOM      9  C8  UNL     1       0.126  -1.089   0.976  0.00  0.00    +0.000 A 
ATOM     10  C17 UNL     1       1.004  -0.263   0.316  0.00  0.00    +0.000 A 
BRANCH   5  11
ATOM     11  O1  UNL     1       3.163   0.521  -0.216  0.00  0.00    +0.000 OA
BRANCH  11  13
ATOM     12  C1  UNL     1       5.141   0.689  -1.613  0.00  0.00    +0.000 C 
ATOM     13  C2  UNL     1       4.529   0.705  -0.255  0.00  0.00    +0.000 C 
ATOM     14  C3  UNL     1       4.808   2.095   0.365  0.00  0.00    +0.000 C 
ENDBRANCH  11  13
ENDBRANCH   5  11
ENDBRANCH   1   9
BRANCH   2  15
ATOM     15  C10 UNL     1      -3.326  -0.380  -0.615  0.00  0.00    +0.000 A 
ATOM     16  C11 UNL     1      -3.997  -1.374  -1.298  0.00  0.00    +0.000 A 
ATOM     17  C12 UNL     1      -5.351  -1.315  -1.478  0.00  0.00    +0.000 A 
ATOM     18  C13 UNL     1      -6.061  -0.253  -0.975  0.00  0.00    +0.000 A 
ATOM     19  C14 UNL     1      -5.390   0.747  -0.291  0.00  0.00    +0.000 A 
ATOM     20  C15 UNL     1      -4.013   0.680  -0.113  0.00  0.00    +0.000 A 
BRANCH  20  21
ATOM     21  C16 UNL     1      -3.315   1.761   0.591  0.00  0.00    +0.000 C 
ATOM     22  F1  UNL     1      -2.363   2.307  -0.277  0.00  0.00    +0.000 F 
ATOM     23  F2  UNL     1      -2.804   1.344   1.767  0.00  0.00    +0.000 F 
ATOM     24  F3  UNL     1      -4.222   2.782   0.862  0.00  0.00    +0.000 F 
ENDBRANCH  20  21
ENDBRANCH   2  15
TORSDOF 5
