REMARK  Name = ./3D_structures\o38_MMV1782225_3D.pdb
REMARK  2 active torsions:
REMARK  status: ('A' for Active; 'I' for Inactive)
REMARK    1  A    between atoms: C2_3  and  N1_4
REMARK    2  A    between atoms: C3_5  and  C4_7
REMARK                            x       y       z     vdW  Elec       q    Type
REMARK                         _______ _______ _______ _____ _____    ______ ____
ROOT
ATOM      1  N1  UNL     1      -0.659   0.370   0.257  0.00  0.00    +0.000 N 
ATOM      2  C3  UNL     1       0.142  -0.507  -0.494  0.00  0.00    +0.000 C 
ATOM      3  O1  UNL     1      -0.381  -1.419  -1.166  0.00  0.00    +0.000 OA
ATOM      4  H1  UNL     1      -0.177   1.139   0.820  0.00  0.00    +0.000 HD
ENDROOT
BRANCH   1   7
ATOM      5  F1  UNL     1      -1.926   2.213   1.800  0.00  0.00    +0.000 F 
ATOM      6  C1  UNL     1      -2.695   1.297   1.144  0.00  0.00    +0.000 A 
ATOM      7  C2  UNL     1      -2.075   0.331   0.338  0.00  0.00    +0.000 A 
ATOM      8  N2  UNL     1      -2.851  -0.554  -0.292  0.00  0.00    +0.000 N 
ATOM      9  C10 UNL     1      -4.202  -0.536  -0.171  0.00  0.00    +0.000 A 
ATOM     10  O2  UNL     1      -4.893  -1.388  -0.783  0.00  0.00    +0.000 OA
ATOM     11  N3  UNL     1      -4.784   0.397   0.606  0.00  0.00    +0.000 NA
ATOM     12  C11 UNL     1      -4.057   1.310   1.263  0.00  0.00    +0.000 A 
ATOM     13  H7  UNL     1      -2.455  -1.284  -0.895  0.00  0.00    +0.000 HD
ENDBRANCH   1   7
BRANCH   2  14
ATOM     14  C4  UNL     1       1.606  -0.407  -0.532  0.00  0.00    +0.000 A 
ATOM     15  C5  UNL     1       2.363  -1.384  -1.165  0.00  0.00    +0.000 A 
ATOM     16  C6  UNL     1       3.754  -1.312  -1.219  0.00  0.00    +0.000 A 
ATOM     17  C7  UNL     1       4.400  -0.248  -0.632  0.00  0.00    +0.000 A 
ATOM     18  C8  UNL     1       3.644   0.716  -0.008  0.00  0.00    +0.000 A 
ATOM     19  C9  UNL     1       2.249   0.653   0.053  0.00  0.00    +0.000 A 
ENDBRANCH   2  14
TORSDOF 2
