REMARK  Name = ./3D_structures\o39_MMV1782354_3D.pdb
REMARK  7 active torsions:
REMARK  status: ('A' for Active; 'I' for Inactive)
REMARK    1  A    between atoms: C1_1  and  C2_2
REMARK    2  A    between atoms: C4_4  and  C5_5
REMARK    3  A    between atoms: C11_11  and  C12_12
REMARK    4  A    between atoms: C12_12  and  C13_14
REMARK    5  A    between atoms: N1_16  and  C14_17
REMARK    6  A    between atoms: C17_20  and  N2_23
REMARK    7  A    between atoms: N6_36  and  C28_37
REMARK                            x       y       z     vdW  Elec       q    Type
REMARK                         _______ _______ _______ _____ _____    ______ ____
ROOT
ATOM      1  C13 UNL     1      -2.533   0.341  -0.397  0.00  0.00    +0.000 C 
ATOM      2  O2  UNL     1      -1.999   1.353  -0.870  0.00  0.00    +0.000 OA
ATOM      3  N1  UNL     1      -1.579  -0.585   0.200  0.00  0.00    +0.000 N 
ATOM      4  H10 UNL     1      -2.031  -1.455   0.618  0.00  0.00    +0.000 HD
ENDROOT
BRANCH   3   5
ATOM      5  C14 UNL     1      -0.208  -0.379   0.234  0.00  0.00    +0.000 A 
ATOM      6  C15 UNL     1       0.491   0.448  -0.572  0.00  0.00    +0.000 A 
ATOM      7  C16 UNL     1       1.884   0.607  -0.448  0.00  0.00    +0.000 A 
ATOM      8  C17 UNL     1       2.589  -0.069   0.494  0.00  0.00    +0.000 A 
ATOM      9  C18 UNL     1       1.888  -0.927   1.334  0.00  0.00    +0.000 A 
ATOM     10  C19 UNL     1       0.533  -1.076   1.207  0.00  0.00    +0.000 A 
BRANCH   8  11
ATOM     11  N2  UNL     1       3.992   0.028   0.681  0.00  0.00    +0.000 N 
ATOM     12  C20 UNL     1       4.853   0.789  -0.194  0.00  0.00    +0.000 C 
ATOM     13  C21 UNL     1       6.043  -0.118  -0.538  0.00  0.00    +0.000 C 
ATOM     14  N3  UNL     1       6.792  -0.278   0.691  0.00  0.00    +0.000 N 
ATOM     15  C22 UNL     1       6.087  -0.208   1.938  0.00  0.00    +0.000 C 
ATOM     16  C23 UNL     1       4.643  -0.651   1.797  0.00  0.00    +0.000 C 
ATOM     17  C24 UNL     1       8.182  -0.499   0.679  0.00  0.00    +0.000 A 
ATOM     18  N4  UNL     1       8.875  -0.588  -0.477  0.00  0.00    +0.000 NA
ATOM     19  C25 UNL     1      10.199  -0.798  -0.505  0.00  0.00    +0.000 A 
ATOM     20  C26 UNL     1      10.890  -0.930   0.677  0.00  0.00    +0.000 A 
ATOM     21  F1  UNL     1      12.234  -1.145   0.713  0.00  0.00    +0.000 F 
ATOM     22  C27 UNL     1      10.196  -0.842   1.873  0.00  0.00    +0.000 A 
ATOM     23  N5  UNL     1       8.870  -0.630   1.825  0.00  0.00    +0.000 NA
ENDBRANCH   8  11
ENDBRANCH   3   5
BRANCH   1  24
ATOM     24  C12 UNL     1      -3.933   0.044  -0.400  0.00  0.00    +0.000 C 
ATOM     25  O1  UNL     1      -4.249  -1.030   0.240  0.00  0.00    +0.000 OA
BRANCH  24  30
ATOM     26  C1  UNL     1      -6.742   3.138  -3.178  0.00  0.00    +0.000 C 
ATOM     27  C2  UNL     1      -6.313   2.074  -2.227  0.00  0.00    +0.000 A 
ATOM     28  C3  UNL     1      -7.137   1.234  -1.549  0.00  0.00    +0.000 A 
ATOM     29  C4  UNL     1      -6.372   0.403  -0.774  0.00  0.00    +0.000 A 
ATOM     30  C11 UNL     1      -5.018   0.767  -1.005  0.00  0.00    +0.000 A 
ATOM     31  N6  UNL     1      -5.014   1.786  -1.893  0.00  0.00    +0.000 N 
ATOM     32  C28 UNL     1      -3.889   2.493  -2.474  0.00  0.00    +0.000 C 
BRANCH  29  33
ATOM     33  C5  UNL     1      -6.860  -0.623   0.145  0.00  0.00    +0.000 A 
ATOM     34  C6  UNL     1      -7.661  -1.656  -0.302  0.00  0.00    +0.000 A 
ATOM     35  C7  UNL     1      -8.153  -2.610   0.576  0.00  0.00    +0.000 A 
ATOM     36  C8  UNL     1      -7.864  -2.564   1.924  0.00  0.00    +0.000 A 
ATOM     37  C9  UNL     1      -7.070  -1.539   2.371  0.00  0.00    +0.000 A 
ATOM     38  C10 UNL     1      -6.582  -0.591   1.490  0.00  0.00    +0.000 A 
ENDBRANCH  29  33
ENDBRANCH  24  30
ENDBRANCH   1  24
TORSDOF 5
