REMARK  Name = ./3D_structures\o3_MMV1634494_3D.pdb
REMARK  20 active torsions:
REMARK  status: ('A' for Active; 'I' for Inactive)
REMARK    1  A    between atoms: C1_1  and  N1_2
REMARK    2  A    between atoms: N1_2  and  C2_3
REMARK    3  A    between atoms: C2_3  and  C3_4
REMARK    4  A    between atoms: C3_4  and  O2_6
REMARK    5  A    between atoms: O2_6  and  C4_7
REMARK    6  A    between atoms: C4_7  and  C5_8
REMARK    7  A    between atoms: N3_14  and  C10_15
REMARK    8  A    between atoms: C11_16  and  O4_18
REMARK    9  A    between atoms: O4_18  and  C12_19
REMARK   10  A    between atoms: C12_19  and  C13_20
REMARK   11  A    between atoms: C12_19  and  N4_21
REMARK   12  A    between atoms: N5_23  and  C15_24
REMARK   13  A    between atoms: C15_24  and  C16_25
REMARK   14  A    between atoms: C16_25  and  O5_26
REMARK   15  A    between atoms: C16_25  and  C17_27
REMARK   16  A    between atoms: C16_25  and  C29_42
REMARK   17  A    between atoms: C17_27  and  C18_28
REMARK   18  A    between atoms: C17_27  and  C19_29
REMARK   19  A    between atoms: C20_31  and  C22_34
REMARK   20  A    between atoms: C25_37  and  C28_40
REMARK                            x       y       z     vdW  Elec       q    Type
REMARK                         _______ _______ _______ _____ _____    ______ ____
ROOT
ATOM      1  C15 UNL     1      -2.384  -0.901  -1.539  0.00  0.00    +0.000 C 
ENDROOT
BRANCH   1   4
ATOM      2  N4  UNL     1       0.560   0.676  -0.280  0.00  0.00    +0.000 N 
ATOM      3  C14 UNL     1      -0.331  -0.306  -0.312  0.00  0.00    +0.000 A 
ATOM      4  N5  UNL     1      -1.282  -0.026  -1.243  0.00  0.00    +0.000 N 
ATOM      5  N8  UNL     1      -0.958   1.137  -1.774  0.00  0.00    +0.000 NA
ATOM      6  C35 UNL     1       0.165   1.590  -1.204  0.00  0.00    +0.000 A 
BRANCH   2   7
ATOM      7  C12 UNL     1       1.763   0.844   0.555  0.00  0.00    +0.000 C 
ATOM      8  C13 UNL     1       1.663   0.132   1.851  0.00  0.00    +0.000 C 
BRANCH   7   9
ATOM      9  O4  UNL     1       2.944   0.654  -0.195  0.00  0.00    +0.000 OA
BRANCH   9  18
ATOM     10  C5  UNL     1       6.979   0.431  -1.368  0.00  0.00    +0.000 A 
ATOM     11  C6  UNL     1       7.634  -0.647  -1.895  0.00  0.00    +0.000 A 
ATOM     12  C7  UNL     1       6.991  -1.572  -2.697  0.00  0.00    +0.000 A 
ATOM     13  C8  UNL     1       5.667  -1.399  -2.974  0.00  0.00    +0.000 A 
ATOM     14  N2  UNL     1       5.010  -0.350  -2.474  0.00  0.00    +0.000 NA
ATOM     15  C9  UNL     1       5.628   0.576  -1.678  0.00  0.00    +0.000 A 
ATOM     16  N3  UNL     1       4.854   1.685  -1.339  0.00  0.00    +0.000 N 
ATOM     17  C10 UNL     1       5.274   2.974  -1.956  0.00  0.00    +0.000 C 
ATOM     18  C11 UNL     1       3.701   1.741  -0.585  0.00  0.00    +0.000 C 
ATOM     19  O3  UNL     1       3.224   2.877  -0.184  0.00  0.00    +0.000 OA
BRANCH  10  20
ATOM     20  C4  UNL     1       7.602   1.388  -0.452  0.00  0.00    +0.000 C 
BRANCH  20  21
ATOM     21  O2  UNL     1       8.926   1.300  -0.211  0.00  0.00    +0.000 OA
BRANCH  21  22
ATOM     22  C3  UNL     1       9.864   0.505   0.265  0.00  0.00    +0.000 C 
ATOM     23  O1  UNL     1       9.619  -0.627   0.701  0.00  0.00    +0.000 OA
BRANCH  22  24
ATOM     24  C2  UNL     1      11.297   0.984   0.279  0.00  0.00    +0.000 C 
BRANCH  24  26
ATOM     25  C1  UNL     1      12.394  -1.117   0.795  0.00  0.00    +0.000 C 
ATOM     26  N1  UNL     1      12.182  -0.036  -0.098  0.00  0.00    +0.000 NA
ATOM     27  H4  UNL     1      13.000   0.258  -0.618  0.00  0.00    +0.000 HD
ENDBRANCH  24  26
ENDBRANCH  22  24
ENDBRANCH  21  22
ENDBRANCH  20  21
ENDBRANCH  10  20
ENDBRANCH   9  18
ENDBRANCH   7   9
ENDBRANCH   2   7
ENDBRANCH   1   4
BRANCH   1  28
ATOM     28  C16 UNL     1      -3.595  -0.657  -0.767  0.00  0.00    +0.000 C 
BRANCH  28  29
ATOM     29  C29 UNL     1      -4.618  -1.691  -1.013  0.00  0.00    +0.000 A 
ATOM     30  C30 UNL     1      -5.229  -1.997  -2.181  0.00  0.00    +0.000 A 
ATOM     31  F1  UNL     1      -4.808  -1.359  -3.299  0.00  0.00    +0.000 F 
ATOM     32  C31 UNL     1      -6.232  -2.930  -2.301  0.00  0.00    +0.000 A 
ATOM     33  C32 UNL     1      -6.686  -3.630  -1.199  0.00  0.00    +0.000 A 
ATOM     34  C33 UNL     1      -6.088  -3.343   0.006  0.00  0.00    +0.000 A 
ATOM     35  C34 UNL     1      -5.090  -2.410   0.102  0.00  0.00    +0.000 A 
ATOM     36  F2  UNL     1      -6.513  -4.009   1.126  0.00  0.00    +0.000 F 
ENDBRANCH  28  29
BRANCH  28  37
ATOM     37  O5  UNL     1      -3.226  -0.819   0.620  0.00  0.00    +0.000 OA
ATOM     38  H22 UNL     1      -2.784  -1.676   0.773  0.00  0.00    +0.000 HD
ENDBRANCH  28  37
BRANCH  28  39
ATOM     39  C17 UNL     1      -4.161   0.764  -0.709  0.00  0.00    +0.000 C 
ATOM     40  C18 UNL     1      -4.521   1.352  -2.029  0.00  0.00    +0.000 C 
BRANCH  39  41
ATOM     41  C19 UNL     1      -5.313   0.670   0.201  0.00  0.00    +0.000 A 
ATOM     42  N6  UNL     1      -6.189   0.598   0.963  0.00  0.00    +0.000 NA
ATOM     43  C20 UNL     1      -6.845   0.563   1.941  0.00  0.00    +0.000 A 
ATOM     44  C21 UNL     1      -5.905   0.724   3.037  0.00  0.00    +0.000 A 
ATOM     45  S1  UNL     1      -4.325   0.865   2.063  0.00  0.00    +0.000 S 
BRANCH  43  46
ATOM     46  C22 UNL     1      -8.272   0.398   2.304  0.00  0.00    +0.000 A 
ATOM     47  C23 UNL     1      -9.246   0.250   1.327  0.00  0.00    +0.000 A 
ATOM     48  C24 UNL     1     -10.587   0.064   1.679  0.00  0.00    +0.000 A 
ATOM     49  C25 UNL     1     -10.997   0.017   2.992  0.00  0.00    +0.000 A 
ATOM     50  C26 UNL     1     -10.013   0.166   3.937  0.00  0.00    +0.000 A 
ATOM     51  C27 UNL     1      -8.686   0.353   3.616  0.00  0.00    +0.000 A 
BRANCH  49  52
ATOM     52  C28 UNL     1     -12.373  -0.198   3.337  0.00  0.00    +0.000 C 
ATOM     53  N7  UNL     1     -13.472  -0.358   3.607  0.00  0.00    +0.000 NA
ENDBRANCH  49  52
ENDBRANCH  43  46
ENDBRANCH  39  41
ENDBRANCH  28  39
ENDBRANCH   1  28
TORSDOF 16
