REMARK  Name = ./3D_structures\o41_MMV1782351_3D.pdb
REMARK  1 active torsions:
REMARK  status: ('A' for Active; 'I' for Inactive)
REMARK    1  A    between atoms: C5_6  and  C7_8
REMARK                            x       y       z     vdW  Elec       q    Type
REMARK                         _______ _______ _______ _____ _____    ______ ____
ROOT
ATOM      1  C7  UNL     1       2.384  -0.059   0.838  0.00  0.00    +0.000 C 
ATOM      2  O1  UNL     1       2.343   0.471   1.987  0.00  0.00    +0.000 OA
ATOM      3  N1  UNL     1       1.158  -0.089   0.126  0.00  0.00    +0.000 N 
ATOM      4  C8  UNL     1      -0.063   0.455   0.683  0.00  0.00    +0.000 C 
ATOM      5  O2  UNL     1       0.019   0.955   1.829  0.00  0.00    +0.000 OA
ATOM      6  N2  UNL     1      -1.268   0.407  -0.060  0.00  0.00    +0.000 N 
ATOM      7  C9  UNL     1      -1.264  -0.261  -1.351  0.00  0.00    +0.000 C 
ATOM      8  C10 UNL     1      -2.625  -0.512  -1.908  0.00  0.00    +0.000 C 
ATOM      9  C11 UNL     1      -3.628  -0.819  -0.792  0.00  0.00    +0.000 C 
ATOM     10  C12 UNL     1      -3.716   0.386   0.068  0.00  0.00    +0.000 A 
ATOM     11  C13 UNL     1      -4.892   0.929   0.522  0.00  0.00    +0.000 A 
ATOM     12  C14 UNL     1      -4.861   2.053   1.311  0.00  0.00    +0.000 A 
ATOM     13  C15 UNL     1      -3.644   2.611   1.629  0.00  0.00    +0.000 A 
ATOM     14  C16 UNL     1      -2.428   2.090   1.188  0.00  0.00    +0.000 A 
ATOM     15  C17 UNL     1      -2.485   0.963   0.399  0.00  0.00    +0.000 A 
ATOM     16  H5  UNL     1       1.111  -0.503  -0.812  0.00  0.00    +0.000 HD
ENDROOT
BRANCH   1  22
ATOM     17 CL1  UNL     1       5.010  -2.431  -3.012  0.00  0.00    +0.000 Cl
ATOM     18  C1  UNL     1       4.905  -1.691  -1.434  0.00  0.00    +0.000 A 
ATOM     19  C2  UNL     1       6.051  -1.616  -0.664  0.00  0.00    +0.000 A 
ATOM     20  C3  UNL     1       5.980  -1.034   0.583  0.00  0.00    +0.000 A 
ATOM     21  C4  UNL     1       4.777  -0.539   1.040  0.00  0.00    +0.000 A 
ATOM     22  C5  UNL     1       3.621  -0.601   0.293  0.00  0.00    +0.000 A 
ATOM     23  C6  UNL     1       3.704  -1.184  -0.949  0.00  0.00    +0.000 A 
ENDBRANCH   1  22
TORSDOF 1
