REMARK  Name = ./3D_structures\o42_MMV1782387_3D.pdb
REMARK  3 active torsions:
REMARK  status: ('A' for Active; 'I' for Inactive)
REMARK    1  A    between atoms: C1_1  and  O1_2
REMARK    2  A    between atoms: O1_2  and  C2_3
REMARK    3  A    between atoms: C5_9  and  C6_10
REMARK                            x       y       z     vdW  Elec       q    Type
REMARK                         _______ _______ _______ _____ _____    ______ ____
ROOT
ATOM      1  C2  UNL     1       3.103   0.589   0.082  0.00  0.00    +0.000 C 
ATOM      2  O2  UNL     1       3.176  -0.644   0.024  0.00  0.00    +0.000 OA
ATOM      3  N1  UNL     1       1.846   1.206   0.098  0.00  0.00    +0.000 N 
ATOM      4  C3  UNL     1       0.584   0.546   0.052  0.00  0.00    +0.000 A 
ATOM      5  N2  UNL     1      -0.634   1.123   0.066  0.00  0.00    +0.000 NA
ATOM      6  C4  UNL     1      -1.583   0.179   0.011  0.00  0.00    +0.000 A 
ATOM      7  C5  UNL     1      -2.968   0.247  -0.001  0.00  0.00    +0.000 A 
ATOM      8  C6  UNL     1      -3.626   1.555   0.054  0.00  0.00    +0.000 C 
ATOM      9  C7  UNL     1      -3.696  -0.911  -0.064  0.00  0.00    +0.000 A 
ATOM     10  C8  UNL     1      -3.076  -2.166  -0.117  0.00  0.00    +0.000 A 
ATOM     11  C9  UNL     1      -1.682  -2.225  -0.104  0.00  0.00    +0.000 A 
ATOM     12  C10 UNL     1      -0.961  -1.053  -0.041  0.00  0.00    +0.000 A 
ATOM     13  N3  UNL     1       0.355  -0.773  -0.013  0.00  0.00    +0.000 N 
ATOM     14  H4  UNL     1       1.846   2.267   0.148  0.00  0.00    +0.000 HD
ATOM     15  H11 UNL     1       1.074  -1.527  -0.041  0.00  0.00    +0.000 HD
ENDROOT
BRANCH   1  17
ATOM     16  C1  UNL     1       5.543   0.585   0.108  0.00  0.00    +0.000 C 
ATOM     17  O1  UNL     1       4.310   1.285   0.128  0.00  0.00    +0.000 OA
ENDBRANCH   1  17
TORSDOF 1
