REMARK  Name = ./3D_structures\o43_MMV1782389_3D.pdb
REMARK  3 active torsions:
REMARK  status: ('A' for Active; 'I' for Inactive)
REMARK    1  A    between atoms: C1_1  and  C2_2
REMARK    2  A    between atoms: N1_6  and  O2_7
REMARK    3  A    between atoms: C5_8  and  C7_10
REMARK                            x       y       z     vdW  Elec       q    Type
REMARK                         _______ _______ _______ _____ _____    ______ ____
ROOT
ATOM      1  C1  UNL     1      -2.848  -0.405  -0.041  0.00  0.00    +0.000 C 
ATOM      2  C2  UNL     1      -1.431   0.039   0.035  0.00  0.00    +0.000 A 
ATOM      3  C3  UNL     1      -1.076   1.361   0.221  0.00  0.00    +0.000 A 
ATOM      4  C4  UNL     1       0.255   1.738   0.287  0.00  0.00    +0.000 A 
ATOM      5  O1  UNL     1       0.539   2.973   0.461  0.00  0.00    +0.000 OA
ATOM      6  N1  UNL     1       1.262   0.853   0.175  0.00  0.00    +0.000 N 
ATOM      7  C5  UNL     1       0.934  -0.437  -0.008  0.00  0.00    +0.000 A 
ATOM      8  C6  UNL     1      -0.390  -0.862  -0.080  0.00  0.00    +0.000 A 
ATOM      9  C7  UNL     1       2.045  -1.408  -0.131  0.00  0.00    +0.000 C 
ENDROOT
BRANCH   6  10
ATOM     10  O2  UNL     1       2.578   1.274   0.246  0.00  0.00    +0.000 OA
ATOM     11  H5  UNL     1       3.235   1.139  -0.508  0.00  0.00    +0.000 HD
ENDBRANCH   6  10
TORSDOF 1
