REMARK  Name = ./3D_structures\o44_MMV1782388_3D.pdb
REMARK  1 active torsions:
REMARK  status: ('A' for Active; 'I' for Inactive)
REMARK    1  A    between atoms: C1_1  and  N1_2
REMARK                            x       y       z     vdW  Elec       q    Type
REMARK                         _______ _______ _______ _____ _____    ______ ____
ROOT
ATOM      1  C1  UNL     1      -2.649  -0.014   0.495  0.00  0.00    +0.000 C 
ATOM      2  N1  UNL     1      -1.625   0.305  -0.482  0.00  0.00    +0.000 N 
ATOM      3  C2  UNL     1      -0.239   0.107  -0.211  0.00  0.00    +0.000 A 
ATOM      4  N2  UNL     1       0.192  -0.389   0.970  0.00  0.00    +0.000 NA
ATOM      5  C3  UNL     1       1.492  -0.586   1.254  0.00  0.00    +0.000 A 
ATOM      6  O1  UNL     1       1.834  -1.059   2.392  0.00  0.00    +0.000 OA
ATOM      7  N3  UNL     1       2.414  -0.279   0.326  0.00  0.00    +0.000 N 
ATOM      8  C4  UNL     1       2.069   0.217  -0.873  0.00  0.00    +0.000 A 
ATOM      9  C5  UNL     1       0.733   0.411  -1.140  0.00  0.00    +0.000 A 
ATOM     10  F1  UNL     1       0.337   0.908  -2.332  0.00  0.00    +0.000 F 
ATOM     11  H4  UNL     1      -1.872   0.692  -1.419  0.00  0.00    +0.000 HD
ATOM     12  H5  UNL     1       3.415  -0.442   0.572  0.00  0.00    +0.000 HD
ENDROOT
TORSDOF 0
