REMARK  Name = ./3D_structures\o45_MMV1634557_3D.pdb
REMARK  9 active torsions:
REMARK  status: ('A' for Active; 'I' for Inactive)
REMARK    1  A    between atoms: C6_9  and  C7_10
REMARK    2  A    between atoms: C9_12  and  O3_24
REMARK    3  A    between atoms: C10_13  and  O2_14
REMARK    4  A    between atoms: O2_14  and  C11_15
REMARK    5  A    between atoms: C11_15  and  C12_16
REMARK    6  A    between atoms: O3_24  and  C20_25
REMARK    7  A    between atoms: C21_26  and  C22_28
REMARK    8  A    between atoms: C28_34  and  C30_36
REMARK    9  A    between atoms: C28_34  and  C31_37
REMARK                            x       y       z     vdW  Elec       q    Type
REMARK                         _______ _______ _______ _____ _____    ______ ____
ROOT
ATOM      1  O1  UNL     1      -0.327  -0.006   1.999  0.00  0.00    +0.000 OA
ATOM      2  C1  UNL     1      -1.550   0.142   1.920  0.00  0.00    +0.000 C 
ATOM      3  C2  UNL     1      -2.141   0.227   0.549  0.00  0.00    +0.000 C 
ATOM      4  C3  UNL     1      -3.275  -0.412   0.341  0.00  0.00    +0.000 C 
ATOM      5  N1  UNL     1      -4.124  -0.567  -0.786  0.00  0.00    +0.000 N 
ATOM      6  C4  UNL     1      -4.042   0.278  -1.960  0.00  0.00    +0.000 A 
ATOM      7  C5  UNL     1      -2.921   0.985  -2.353  0.00  0.00    +0.000 A 
ATOM      8  N2  UNL     1      -1.633   1.012  -1.761  0.00  0.00    +0.000 N 
ATOM      9  C6  UNL     1      -1.306   1.023  -0.354  0.00  0.00    +0.000 C 
ATOM     10  C21 UNL     1      -0.527   0.986  -2.695  0.00  0.00    +0.000 C 
ATOM     11  O4  UNL     1       0.628   1.367  -2.352  0.00  0.00    +0.000 OA
ATOM     12  C22 UNL     1      -0.642   0.515  -4.081  0.00  0.00    +0.000 C 
ATOM     13  C23 UNL     1      -2.976   1.805  -3.491  0.00  0.00    +0.000 A 
ATOM     14  C24 UNL     1      -4.162   1.865  -4.176  0.00  0.00    +0.000 A 
ATOM     15  C25 UNL     1      -5.273   1.154  -3.775  0.00  0.00    +0.000 A 
ATOM     16  C26 UNL     1      -5.210   0.352  -2.655  0.00  0.00    +0.000 A 
ATOM     17  C27 UNL     1      -3.837  -1.175   1.528  0.00  0.00    +0.000 C 
ATOM     18  C28 UNL     1      -3.831  -0.309   2.758  0.00  0.00    +0.000 C 
ATOM     19  C29 UNL     1      -2.470   0.241   3.063  0.00  0.00    +0.000 C 
ATOM     20  C30 UNL     1      -4.252  -1.182   3.921  0.00  0.00    +0.000 C 
ATOM     21  C31 UNL     1      -4.882   0.756   2.577  0.00  0.00    +0.000 C 
ATOM     22  H1  UNL     1      -4.842  -1.296  -0.797  0.00  0.00    +0.000 HD
ENDROOT
BRANCH   9  23
ATOM     23  C7  UNL     1       0.140   0.718  -0.176  0.00  0.00    +0.000 A 
ATOM     24  C8  UNL     1       1.008   1.620   0.355  0.00  0.00    +0.000 A 
ATOM     25  C9  UNL     1       2.353   1.303   0.544  0.00  0.00    +0.000 A 
ATOM     26  C10 UNL     1       2.817   0.037   0.181  0.00  0.00    +0.000 A 
ATOM     27  C18 UNL     1       1.913  -0.854  -0.354  0.00  0.00    +0.000 A 
ATOM     28  C19 UNL     1       0.565  -0.525  -0.539  0.00  0.00    +0.000 A 
BRANCH  25  29
ATOM     29  O3  UNL     1       3.241   2.199   1.078  0.00  0.00    +0.000 OA
ATOM     30  C20 UNL     1       2.890   3.503   1.480  0.00  0.00    +0.000 C 
ENDBRANCH  25  29
BRANCH  26  31
ATOM     31  O2  UNL     1       4.151  -0.315   0.354  0.00  0.00    +0.000 OA
BRANCH  31  32
ATOM     32  C11 UNL     1       4.559  -1.602  -0.029  0.00  0.00    +0.000 C 
BRANCH  32  33
ATOM     33  C12 UNL     1       5.984  -1.868   0.196  0.00  0.00    +0.000 A 
ATOM     34  C13 UNL     1       6.911  -1.591  -0.787  0.00  0.00    +0.000 A 
ATOM     35  C14 UNL     1       8.263  -1.830  -0.609  0.00  0.00    +0.000 A 
ATOM     36  C15 UNL     1       8.713  -2.357   0.566  0.00  0.00    +0.000 A 
ATOM     37  C16 UNL     1       7.791  -2.644   1.573  0.00  0.00    +0.000 A 
ATOM     38  C17 UNL     1       6.451  -2.398   1.377  0.00  0.00    +0.000 A 
ENDBRANCH  32  33
ENDBRANCH  31  32
ENDBRANCH  26  31
ENDBRANCH   9  23
TORSDOF 5
