REMARK  Name = ./3D_structures\o46_MMV030787_3D.pdb
REMARK  5 active torsions:
REMARK  status: ('A' for Active; 'I' for Inactive)
REMARK    1  A    between atoms: C4_5  and  N1_8
REMARK    2  A    between atoms: C8_11  and  N3_12
REMARK    3  A    between atoms: C9_13  and  C10_14
REMARK    4  A    between atoms: C19_23  and  C22_27
REMARK    5  A    between atoms: C20_24  and  C21_25
REMARK                            x       y       z     vdW  Elec       q    Type
REMARK                         _______ _______ _______ _____ _____    ______ ____
ROOT
ATOM      1  N1  UNL     1       2.833   1.379   0.953  0.00  0.00    +0.000 N 
ATOM      2  C7  UNL     1       1.994   0.270   0.574  0.00  0.00    +0.000 A 
ATOM      3  N2  UNL     1       0.649   0.401   0.696  0.00  0.00    +0.000 NA
ATOM      4  C8  UNL     1      -0.213  -0.557   0.364  0.00  0.00    +0.000 A 
ATOM      5  C19 UNL     1       0.270  -1.745  -0.127  0.00  0.00    +0.000 A 
ATOM      6  C20 UNL     1       1.655  -1.883  -0.254  0.00  0.00    +0.000 A 
ATOM      7  C21 UNL     1       2.225  -3.150  -0.782  0.00  0.00    +0.000 C 
ATOM      8  N4  UNL     1       2.468  -0.879   0.097  0.00  0.00    +0.000 NA
ATOM      9  C22 UNL     1      -0.602  -2.874  -0.519  0.00  0.00    +0.000 C 
ATOM     10  H5  UNL     1       2.329   2.252   1.314  0.00  0.00    +0.000 HD
ENDROOT
BRANCH   4  11
ATOM     11  N3  UNL     1      -1.631  -0.389   0.498  0.00  0.00    +0.000 N 
ATOM     12  C9  UNL     1      -2.534  -0.416  -0.623  0.00  0.00    +0.000 C 
ATOM     13  C10 UNL     1      -1.842  -0.004  -1.894  0.00  0.00    +0.000 C 
ATOM     14  C11 UNL     1      -3.759   0.398  -0.367  0.00  0.00    +0.000 A 
ATOM     15  C12 UNL     1      -4.292   0.284   0.903  0.00  0.00    +0.000 A 
ATOM     16  C13 UNL     1      -3.610  -0.618   1.890  0.00  0.00    +0.000 C 
ATOM     17  C14 UNL     1      -2.144  -0.187   1.838  0.00  0.00    +0.000 C 
ATOM     18  C15 UNL     1      -5.421   1.008   1.197  0.00  0.00    +0.000 A 
ATOM     19  C16 UNL     1      -5.993   1.827   0.222  0.00  0.00    +0.000 A 
ATOM     20  C17 UNL     1      -5.461   1.942  -1.048  0.00  0.00    +0.000 A 
ATOM     21  C18 UNL     1      -4.328   1.211  -1.331  0.00  0.00    +0.000 A 
ENDBRANCH   4  11
BRANCH   1  26
ATOM     22  F1  UNL     1       8.317   1.872   0.738  0.00  0.00    +0.000 F 
ATOM     23  C1  UNL     1       6.971   1.718   0.791  0.00  0.00    +0.000 A 
ATOM     24  C2  UNL     1       6.413   0.473   0.646  0.00  0.00    +0.000 A 
ATOM     25  C3  UNL     1       5.033   0.305   0.699  0.00  0.00    +0.000 A 
ATOM     26  C4  UNL     1       4.241   1.406   0.897  0.00  0.00    +0.000 A 
ATOM     27  C5  UNL     1       4.839   2.667   1.042  0.00  0.00    +0.000 A 
ATOM     28  C6  UNL     1       6.190   2.830   0.990  0.00  0.00    +0.000 A 
ENDBRANCH   1  26
TORSDOF 2
