REMARK  Name = ./3D_structures\o47_MMV000028_3D.pdb
REMARK  8 active torsions:
REMARK  status: ('A' for Active; 'I' for Inactive)
REMARK    1  A    between atoms: C1_1  and  O1_2
REMARK    2  A    between atoms: O1_2  and  C2_3
REMARK    3  A    between atoms: C4_5  and  C5_6
REMARK    4  A    between atoms: C5_6  and  C6_7
REMARK    5  A    between atoms: C11_16  and  O2_17
REMARK    6  A    between atoms: O2_17  and  C12_18
REMARK    7  A    between atoms: C13_19  and  O3_20
REMARK    8  A    between atoms: O3_20  and  C14_21
REMARK                            x       y       z     vdW  Elec       q    Type
REMARK                         _______ _______ _______ _____ _____    ______ ____
ROOT
ATOM      1  C5  UNL     1       1.109  -1.874   0.501  0.00  0.00    +0.000 C 
ENDROOT
BRANCH   1   2
ATOM      2  C6  UNL     1       2.232  -0.916   0.543  0.00  0.00    +0.000 A 
ATOM      3  C7  UNL     1       2.705  -0.465   1.777  0.00  0.00    +0.000 A 
ATOM      4  N1  UNL     1       3.702   0.418   1.881  0.00  0.00    +0.000 NA
ATOM      5  C8  UNL     1       4.271   0.890   0.742  0.00  0.00    +0.000 A 
ATOM      6  N2  UNL     1       5.326   1.827   0.782  0.00  0.00    +0.000 N 
ATOM      7  N3  UNL     1       3.829   0.467  -0.435  0.00  0.00    +0.000 NA
ATOM      8  C9  UNL     1       2.823  -0.425  -0.576  0.00  0.00    +0.000 A 
ATOM      9  N4  UNL     1       2.443  -0.819  -1.881  0.00  0.00    +0.000 N 
ATOM     10  H8  UNL     1       5.320   2.623   0.119  0.00  0.00    +0.000 HD
ATOM     11  H9  UNL     1       6.102   1.732   1.461  0.00  0.00    +0.000 HD
ATOM     12  H10 UNL     1       2.511  -0.128  -2.674  0.00  0.00    +0.000 HD
ATOM     13  H11 UNL     1       2.098  -1.757  -2.109  0.00  0.00    +0.000 HD
ENDBRANCH   1   2
BRANCH   1  16
ATOM     14  C2  UNL     1      -2.083   0.039   1.104  0.00  0.00    +0.000 A 
ATOM     15  C3  UNL     1      -0.890  -0.622   1.281  0.00  0.00    +0.000 A 
ATOM     16  C4  UNL     1      -0.186  -1.184   0.206  0.00  0.00    +0.000 A 
ATOM     17  C10 UNL     1      -0.736  -1.049  -1.035  0.00  0.00    +0.000 A 
ATOM     18  C11 UNL     1      -1.935  -0.394  -1.271  0.00  0.00    +0.000 A 
ATOM     19  C13 UNL     1      -2.590   0.143  -0.187  0.00  0.00    +0.000 A 
BRANCH  14  21
ATOM     20  C1  UNL     1      -2.211   0.452   3.465  0.00  0.00    +0.000 C 
ATOM     21  O1  UNL     1      -2.771   0.590   2.173  0.00  0.00    +0.000 OA
ENDBRANCH  14  21
BRANCH  18  22
ATOM     22  O2  UNL     1      -2.497  -0.252  -2.514  0.00  0.00    +0.000 OA
ATOM     23  C12 UNL     1      -2.032  -0.710  -3.736  0.00  0.00    +0.000 C 
ENDBRANCH  18  22
BRANCH  19  24
ATOM     24  O3  UNL     1      -3.793   0.805  -0.399  0.00  0.00    +0.000 OA
ATOM     25  C14 UNL     1      -3.655   2.212  -0.663  0.00  0.00    +0.000 C 
ENDBRANCH  19  24
ENDBRANCH   1  16
TORSDOF 5
