REMARK  Name = ./3D_structures\o48_MMV002722_3D.pdb
REMARK  6 active torsions:
REMARK  status: ('A' for Active; 'I' for Inactive)
REMARK    1  A    between atoms: C4_5  and  C5_6
REMARK    2  A    between atoms: C5_6  and  O1_7
REMARK    3  A    between atoms: O1_7  and  C6_8
REMARK    4  A    between atoms: C6_8  and  C7_9
REMARK    5  A    between atoms: C6_8  and  C11_15
REMARK    6  A    between atoms: C7_9  and  N1_10
REMARK                            x       y       z     vdW  Elec       q    Type
REMARK                         _______ _______ _______ _____ _____    ______ ____
ROOT
ATOM      1  C6  UNL     1      -1.074  -0.141  -0.059  0.00  0.00    +0.000 C 
ENDROOT
BRANCH   1   2
ATOM      2  C11 UNL     1      -1.595  -1.489  -0.306  0.00  0.00    +0.000 A 
ATOM      3  C12 UNL     1      -2.810  -1.885   0.293  0.00  0.00    +0.000 A 
ATOM      4  C13 UNL     1      -3.214  -3.225   0.212  0.00  0.00    +0.000 A 
ATOM      5  C14 UNL     1      -2.431  -4.100  -0.444  0.00  0.00    +0.000 A 
ATOM      6 CL2  UNL     1      -2.886  -5.761  -0.488  0.00  0.00    +0.000 Cl
ATOM      7  C15 UNL     1      -1.200  -3.711  -1.057  0.00  0.00    +0.000 A 
ATOM      8  C16 UNL     1      -0.804  -2.405  -0.977  0.00  0.00    +0.000 A 
ATOM      9 CL3  UNL     1       0.724  -1.975  -1.739  0.00  0.00    +0.000 Cl
ENDBRANCH   1   2
BRANCH   1  10
ATOM     10  O1  UNL     1       0.180   0.051  -0.426  0.00  0.00    +0.000 OA
BRANCH  10  11
ATOM     11  C5  UNL     1       1.101   0.375   0.598  0.00  0.00    +0.000 C 
BRANCH  11  16
ATOM     12 CL1  UNL     1       7.008   0.277  -0.761  0.00  0.00    +0.000 Cl
ATOM     13  C1  UNL     1       5.262   0.307  -0.441  0.00  0.00    +0.000 A 
ATOM     14  C2  UNL     1       4.622  -0.861  -0.129  0.00  0.00    +0.000 A 
ATOM     15  C3  UNL     1       3.242  -0.820   0.152  0.00  0.00    +0.000 A 
ATOM     16  C4  UNL     1       2.501   0.344   0.124  0.00  0.00    +0.000 A 
ATOM     17  C17 UNL     1       3.208   1.495  -0.192  0.00  0.00    +0.000 A 
ATOM     18 CL4  UNL     1       2.258   2.979  -0.271  0.00  0.00    +0.000 Cl
ATOM     19  C18 UNL     1       4.571   1.518  -0.476  0.00  0.00    +0.000 A 
ENDBRANCH  11  16
ENDBRANCH  10  11
ENDBRANCH   1  10
BRANCH   1  20
ATOM     20  C7  UNL     1      -2.144   0.835  -0.269  0.00  0.00    +0.000 C 
BRANCH  20  21
ATOM     21  N1  UNL     1      -2.091   2.154   0.314  0.00  0.00    +0.000 N 
ATOM     22  C8  UNL     1      -1.530   3.287  -0.102  0.00  0.00    +0.000 A 
ATOM     23  C9  UNL     1      -1.877   4.347   0.766  0.00  0.00    +0.000 A 
ATOM     24  N2  UNL     1      -2.657   3.820   1.715  0.00  0.00    +0.000 NA
ATOM     25  C10 UNL     1      -2.794   2.513   1.459  0.00  0.00    +0.000 A 
ENDBRANCH  20  21
ENDBRANCH   1  20
TORSDOF 6
