REMARK  Name = ./3D_structures\o49_MMV1593535_3D.pdb
REMARK  8 active torsions:
REMARK  status: ('A' for Active; 'I' for Inactive)
REMARK    1  A    between atoms: C1_1  and  C2_2
REMARK    2  A    between atoms: C2_2  and  C3_3
REMARK    3  A    between atoms: C3_3  and  C4_4
REMARK    4  A    between atoms: C4_4  and  C5_5
REMARK    5  A    between atoms: C5_5  and  C6_6
REMARK    6  A    between atoms: C6_6  and  C7_7
REMARK    7  A    between atoms: C11_11  and  O1_12
REMARK    8  A    between atoms: C16_18  and  O3_19
REMARK                            x       y       z     vdW  Elec       q    Type
REMARK                         _______ _______ _______ _____ _____    ______ ____
ROOT
ATOM      1  C7  UNL     1      -0.488  -0.094  -0.390  0.00  0.00    +0.000 C 
ATOM      2  C8  UNL     1      -1.320   1.164  -0.493  0.00  0.00    +0.000 A 
ATOM      3  C9  UNL     1      -0.641   2.381  -0.551  0.00  0.00    +0.000 A 
ATOM      4  C10 UNL     1      -1.319   3.590  -0.607  0.00  0.00    +0.000 A 
ATOM      5  C11 UNL     1      -2.687   3.616  -0.606  0.00  0.00    +0.000 A 
ATOM      6  C12 UNL     1      -3.358   2.430  -0.551  0.00  0.00    +0.000 A 
ATOM      7  C13 UNL     1      -2.668   1.215  -0.496  0.00  0.00    +0.000 A 
ATOM      8  O2  UNL     1      -3.406   0.070  -0.450  0.00  0.00    +0.000 OA
ATOM      9  C14 UNL     1      -2.740  -1.169  -0.404  0.00  0.00    +0.000 A 
ATOM     10  C15 UNL     1      -3.613  -2.255  -0.373  0.00  0.00    +0.000 A 
ATOM     11  C16 UNL     1      -3.072  -3.528  -0.337  0.00  0.00    +0.000 A 
ATOM     12  C17 UNL     1      -1.717  -3.657  -0.334  0.00  0.00    +0.000 A 
ATOM     13  C18 UNL     1      -0.858  -2.565  -0.365  0.00  0.00    +0.000 A 
ATOM     14  C19 UNL     1      -1.368  -1.290  -0.399  0.00  0.00    +0.000 A 
ENDROOT
BRANCH   5  15
ATOM     15  O1  UNL     1      -3.329   4.854  -0.662  0.00  0.00    +0.000 OA
ATOM     16  H17 UNL     1      -3.528   5.283   0.252  0.00  0.00    +0.000 HD
ENDBRANCH   5  15
BRANCH  11  17
ATOM     17  O3  UNL     1      -3.951  -4.601  -0.306  0.00  0.00    +0.000 OA
ATOM     18  H20 UNL     1      -4.952  -4.474  -0.309  0.00  0.00    +0.000 HD
ENDBRANCH  11  17
BRANCH   1  19
ATOM     19  C6  UNL     1       0.278   0.091   0.893  0.00  0.00    +0.000 C 
BRANCH  19  20
ATOM     20  C5  UNL     1       1.244  -0.938   1.296  0.00  0.00    +0.000 C 
BRANCH  20  21
ATOM     21  C4  UNL     1       2.380  -1.089   0.289  0.00  0.00    +0.000 C 
BRANCH  21  22
ATOM     22  C3  UNL     1       3.176   0.204   0.142  0.00  0.00    +0.000 C 
BRANCH  22  24
ATOM     23  C1  UNL     1       5.146   1.113  -1.120  0.00  0.00    +0.000 C 
ATOM     24  C2  UNL     1       4.267  -0.095  -0.871  0.00  0.00    +0.000 C 
ENDBRANCH  22  24
ENDBRANCH  21  22
ENDBRANCH  20  21
ENDBRANCH  19  20
ENDBRANCH   1  19
TORSDOF 7
