REMARK  Name = ./3D_structures\o4_MMV1634386_3D.pdb
REMARK  10 active torsions:
REMARK  status: ('A' for Active; 'I' for Inactive)
REMARK    1  A    between atoms: C2_3  and  C7_9
REMARK    2  A    between atoms: C7_9  and  O1_10
REMARK    3  A    between atoms: C7_9  and  C8_11
REMARK    4  A    between atoms: C7_9  and  C22_32
REMARK    5  A    between atoms: C8_11  and  C9_14
REMARK    6  A    between atoms: C11_17  and  C12_18
REMARK    7  A    between atoms: C15_21  and  O2_22
REMARK    8  A    between atoms: O2_22  and  C16_23
REMARK    9  A    between atoms: C16_23  and  C17_24
REMARK   10  A    between atoms: C22_32  and  N2_33
REMARK                            x       y       z     vdW  Elec       q    Type
REMARK                         _______ _______ _______ _____ _____    ______ ____
ROOT
ATOM      1  C8  UNL     1      -2.447   0.612   1.196  0.00  0.00    +0.000 C 
ATOM      2  F3  UNL     1      -2.426   0.382   2.578  0.00  0.00    +0.000 F 
ATOM      3  F4  UNL     1      -2.737   1.893   0.860  0.00  0.00    +0.000 F 
ENDROOT
BRANCH   1   4
ATOM      4  C9  UNL     1      -1.002   0.380   0.819  0.00  0.00    +0.000 A 
ATOM      5  N1  UNL     1      -0.540  -0.816   0.488  0.00  0.00    +0.000 NA
ATOM      6  C10 UNL     1       0.762  -0.933   0.214  0.00  0.00    +0.000 A 
ATOM      7  C11 UNL     1       1.670   0.130   0.256  0.00  0.00    +0.000 A 
ATOM      8  C20 UNL     1       1.170   1.364   0.602  0.00  0.00    +0.000 A 
ATOM      9  C21 UNL     1      -0.162   1.473   0.879  0.00  0.00    +0.000 A 
BRANCH   7  10
ATOM     10  C12 UNL     1       3.071  -0.071  -0.021  0.00  0.00    +0.000 A 
ATOM     11  C13 UNL     1       3.858   0.883  -0.582  0.00  0.00    +0.000 A 
ATOM     12  C14 UNL     1       5.219   0.662  -0.823  0.00  0.00    +0.000 A 
ATOM     13  C15 UNL     1       5.804  -0.530  -0.498  0.00  0.00    +0.000 A 
ATOM     14  C18 UNL     1       4.988  -1.525   0.084  0.00  0.00    +0.000 A 
ATOM     15  C19 UNL     1       3.668  -1.275   0.303  0.00  0.00    +0.000 A 
BRANCH  13  16
ATOM     16  O2  UNL     1       7.090  -0.799  -0.694  0.00  0.00    +0.000 OA
BRANCH  16  17
ATOM     17  C16 UNL     1       8.270  -0.334  -1.125  0.00  0.00    +0.000 C 
BRANCH  17  18
ATOM     18  C17 UNL     1       8.873   0.831  -0.354  0.00  0.00    +0.000 C 
ATOM     19  F5  UNL     1      10.105   1.154  -0.941  0.00  0.00    +0.000 F 
ATOM     20  F6  UNL     1       8.106   1.955  -0.341  0.00  0.00    +0.000 F 
ATOM     21  F7  UNL     1       9.101   0.380   0.929  0.00  0.00    +0.000 F 
ENDBRANCH  17  18
ENDBRANCH  16  17
ENDBRANCH  13  16
ENDBRANCH   7  10
ENDBRANCH   1   4
BRANCH   1  22
ATOM     22  C7  UNL     1      -3.276  -0.452   0.583  0.00  0.00    +0.000 C 
BRANCH  22  25
ATOM     23  F1  UNL     1      -5.249   1.629   0.507  0.00  0.00    +0.000 F 
ATOM     24  C1  UNL     1      -5.600   0.430   0.979  0.00  0.00    +0.000 A 
ATOM     25  C2  UNL     1      -4.643  -0.551   1.061  0.00  0.00    +0.000 A 
ATOM     26  C3  UNL     1      -5.081  -1.755   1.626  0.00  0.00    +0.000 A 
ATOM     27  C4  UNL     1      -6.385  -1.910   2.057  0.00  0.00    +0.000 A 
ATOM     28  C5  UNL     1      -7.305  -0.897   1.953  0.00  0.00    +0.000 A 
ATOM     29  C6  UNL     1      -6.908   0.295   1.404  0.00  0.00    +0.000 A 
ATOM     30  F2  UNL     1      -8.595  -1.048   2.379  0.00  0.00    +0.000 F 
ENDBRANCH  22  25
BRANCH  22  31
ATOM     31  O1  UNL     1      -2.629  -1.696   0.956  0.00  0.00    +0.000 OA
ATOM     32  H4  UNL     1      -2.291  -1.617   1.870  0.00  0.00    +0.000 HD
ENDBRANCH  22  31
BRANCH  22  33
ATOM     33  C22 UNL     1      -3.179  -0.527  -0.924  0.00  0.00    +0.000 C 
BRANCH  33  34
ATOM     34  N2  UNL     1      -3.889   0.463  -1.686  0.00  0.00    +0.000 N 
ATOM     35  N3  UNL     1      -5.126   0.395  -2.171  0.00  0.00    +0.000 NA
ATOM     36  N4  UNL     1      -5.351   1.513  -2.818  0.00  0.00    +0.000 NA
ATOM     37  N5  UNL     1      -4.298   2.297  -2.761  0.00  0.00    +0.000 NA
ATOM     38  C23 UNL     1      -3.381   1.636  -2.048  0.00  0.00    +0.000 A 
ENDBRANCH  33  34
ENDBRANCH  22  33
ENDBRANCH   1  22
TORSDOF 10
