REMARK  Name = ./3D_structures\o50_MMV1593533_3D.pdb
REMARK  5 active torsions:
REMARK  status: ('A' for Active; 'I' for Inactive)
REMARK    1  A    between atoms: C1_1  and  C2_2
REMARK    2  A    between atoms: C3_3  and  C16_22
REMARK    3  A    between atoms: N2_10  and  C6_11
REMARK    4  A    between atoms: C6_11  and  C7_12
REMARK    5  A    between atoms: C20_26  and  C22_28
REMARK                            x       y       z     vdW  Elec       q    Type
REMARK                         _______ _______ _______ _____ _____    ______ ____
ROOT
ATOM      1  C1  UNL     1       1.654   0.494  -1.369  0.00  0.00    +0.000 C 
ATOM      2  C2  UNL     1       1.654  -0.691  -0.472  0.00  0.00    +0.000 C 
ATOM      3  C3  UNL     1       2.886  -1.424  -0.286  0.00  0.00    +0.000 C 
ATOM      4  O1  UNL     1       2.738  -1.960   1.061  0.00  0.00    +0.000 OA
ATOM      5  C4  UNL     1       2.147  -0.851   1.714  0.00  0.00    +0.000 C 
ATOM      6  O2  UNL     1       2.396  -0.270   2.781  0.00  0.00    +0.000 OA
ATOM      7  N1  UNL     1       1.062  -0.479   0.802  0.00  0.00    +0.000 N 
ATOM      8  C5  UNL     1      -0.236  -0.146   1.189  0.00  0.00    +0.000 C 
ATOM      9  O3  UNL     1      -0.549   0.121   2.371  0.00  0.00    +0.000 OA
ATOM     10  N2  UNL     1      -1.344  -0.094   0.258  0.00  0.00    +0.000 N 
ATOM     11  H6  UNL     1      -1.135  -0.301  -0.724  0.00  0.00    +0.000 HD
ENDROOT
BRANCH   3  12
ATOM     12  C16 UNL     1       4.210  -0.837  -0.252  0.00  0.00    +0.000 A 
ATOM     13  C17 UNL     1       5.300  -1.737  -0.182  0.00  0.00    +0.000 A 
ATOM     14  C18 UNL     1       6.582  -1.254  -0.099  0.00  0.00    +0.000 A 
ATOM     15  C19 UNL     1       6.852   0.065  -0.088  0.00  0.00    +0.000 A 
ATOM     16  C20 UNL     1       5.833   0.956  -0.154  0.00  0.00    +0.000 A 
ATOM     17  C21 UNL     1       4.516   0.483  -0.235  0.00  0.00    +0.000 A 
BRANCH  16  18
ATOM     18  C22 UNL     1       6.132   2.425  -0.148  0.00  0.00    +0.000 C 
ATOM     19  F1  UNL     1       4.946   3.100  -0.351  0.00  0.00    +0.000 F 
ATOM     20  F2  UNL     1       6.516   2.730   1.155  0.00  0.00    +0.000 F 
ATOM     21  F3  UNL     1       7.021   2.783  -1.098  0.00  0.00    +0.000 F 
ENDBRANCH  16  18
ENDBRANCH   3  12
BRANCH  10  22
ATOM     22  C6  UNL     1      -2.662   0.245   0.705  0.00  0.00    +0.000 C 
BRANCH  22  23
ATOM     23  C7  UNL     1      -3.766  -0.164  -0.187  0.00  0.00    +0.000 A 
ATOM     24  C8  UNL     1      -3.586  -0.923  -1.331  0.00  0.00    +0.000 A 
ATOM     25  N3  UNL     1      -4.647  -1.342  -2.067  0.00  0.00    +0.000 NA
ATOM     26  C9  UNL     1      -5.912  -1.064  -1.756  0.00  0.00    +0.000 A 
ATOM     27  C10 UNL     1      -6.153  -0.306  -0.623  0.00  0.00    +0.000 A 
ATOM     28  C11 UNL     1      -7.462   0.020  -0.253  0.00  0.00    +0.000 A 
ATOM     29  C12 UNL     1      -7.686   0.777   0.870  0.00  0.00    +0.000 A 
ATOM     30  C13 UNL     1      -6.600   1.201   1.612  0.00  0.00    +0.000 A 
ATOM     31  C14 UNL     1      -5.313   0.883   1.253  0.00  0.00    +0.000 A 
ATOM     32  C15 UNL     1      -5.091   0.130   0.138  0.00  0.00    +0.000 A 
ENDBRANCH  22  23
ENDBRANCH  10  22
TORSDOF 4
