REMARK  Name = ./3D_structures\o51_MMV422940_3D.pdb
REMARK  2 active torsions:
REMARK  status: ('A' for Active; 'I' for Inactive)
REMARK    1  A    between atoms: O1_1  and  C1_2
REMARK    2  A    between atoms: C3_4  and  C4_7
REMARK                            x       y       z     vdW  Elec       q    Type
REMARK                         _______ _______ _______ _____ _____    ______ ____
ROOT
ATOM      1  C4  UNL     1       0.271  -0.687   0.106  0.00  0.00    +0.000 A 
ATOM      2  C5  UNL     1       0.020  -2.065   0.269  0.00  0.00    +0.000 A 
ATOM      3  C6  UNL     1      -1.236  -2.601   0.287  0.00  0.00    +0.000 A 
ATOM      4  C7  UNL     1      -2.339  -1.803   0.144  0.00  0.00    +0.000 A 
ATOM      5  C8  UNL     1      -2.139  -0.437  -0.023  0.00  0.00    +0.000 A 
ATOM      6  C9  UNL     1      -3.251   0.382  -0.204  0.00  0.00    +0.000 A 
ATOM      7  C10 UNL     1      -3.099   1.732  -0.409  0.00  0.00    +0.000 A 
ATOM      8  C11 UNL     1      -1.826   2.260  -0.431  0.00  0.00    +0.000 A 
ATOM      9  C12 UNL     1      -0.725   1.453  -0.251  0.00  0.00    +0.000 A 
ATOM     10  C13 UNL     1      -0.859   0.085  -0.039  0.00  0.00    +0.000 A 
ENDROOT
BRANCH   1  13
ATOM     11  C1  UNL     1       3.685   0.731   0.323  0.00  0.00    +0.000 A 
ATOM     12  C2  UNL     1       2.298   0.894   0.473  0.00  0.00    +0.000 A 
ATOM     13  C3  UNL     1       1.646  -0.242   0.085  0.00  0.00    +0.000 A 
ATOM     14  N1  UNL     1       2.665  -1.081  -0.294  0.00  0.00    +0.000 N 
ATOM     15  N2  UNL     1       3.833  -0.500  -0.149  0.00  0.00    +0.000 NA
ATOM     16  H3  UNL     1       2.467  -2.051  -0.650  0.00  0.00    +0.000 HD
BRANCH  11  17
ATOM     17  O1  UNL     1       4.644   1.692   0.624  0.00  0.00    +0.000 OA
ATOM     18  H1  UNL     1       5.586   1.565   0.340  0.00  0.00    +0.000 HD
ENDBRANCH  11  17
ENDBRANCH   1  13
TORSDOF 2
