REMARK  Name = ./3D_structures\o52_MMV1582497_3D.pdb
REMARK  10 active torsions:
REMARK  status: ('A' for Active; 'I' for Inactive)
REMARK    1  A    between atoms: C1_1  and  C2_2
REMARK    2  A    between atoms: C2_2  and  C3_3
REMARK    3  A    between atoms: C2_2  and  C4_4
REMARK    4  A    between atoms: C7_7  and  C8_8
REMARK    5  A    between atoms: C8_8  and  O1_9
REMARK    6  A    between atoms: O1_9  and  C9_10
REMARK    7  A    between atoms: C13_14  and  C15_16
REMARK    8  A    between atoms: C17_18  and  S1_25
REMARK    9  A    between atoms: C18_19  and  C19_20
REMARK   10  A    between atoms: S1_25  and  C21_27
REMARK                            x       y       z     vdW  Elec       q    Type
REMARK                         _______ _______ _______ _____ _____    ______ ____
ROOT
ATOM      1  C9  UNL     1      -0.045   0.914  -0.149  0.00  0.00    +0.000 A 
ATOM      2  C10 UNL     1       0.485   0.476  -1.382  0.00  0.00    +0.000 A 
ATOM      3  C11 UNL     1      -0.359   0.307  -2.371  0.00  0.00    +0.000 A 
ATOM      4  C12 UNL     1      -1.722   0.504  -2.349  0.00  0.00    +0.000 A 
ATOM      5  C13 UNL     1      -2.299   0.948  -1.131  0.00  0.00    +0.000 A 
ATOM      6  C14 UNL     1      -1.450   1.147  -0.057  0.00  0.00    +0.000 A 
ENDROOT
BRANCH   5   7
ATOM      7  C15 UNL     1      -3.754   1.127  -1.073  0.00  0.00    +0.000 A 
ATOM      8  C16 UNL     1      -4.365   1.957  -0.145  0.00  0.00    +0.000 A 
ATOM      9  C17 UNL     1      -5.720   2.217  -0.247  0.00  0.00    +0.000 A 
ATOM     10  C18 UNL     1      -6.361   1.629  -1.311  0.00  0.00    +0.000 A 
ATOM     11  C20 UNL     1      -5.833   0.846  -2.188  0.00  0.00    +0.000 A 
ATOM     12  O2  UNL     1      -6.454   0.287  -3.168  0.00  0.00    +0.000 OA
ATOM     13  N2  UNL     1      -4.481   0.534  -2.117  0.00  0.00    +0.000 N 
ATOM     14  H17 UNL     1      -4.083  -0.110  -2.776  0.00  0.00    +0.000 HD
BRANCH   9  15
ATOM     15  S1  UNL     1      -6.680   3.105   0.913  0.00  0.00    +0.000 S 
ATOM     16  O3  UNL     1      -8.050   3.492   0.273  0.00  0.00    +0.000 OA
ATOM     17  C21 UNL     1      -7.013   2.005   2.317  0.00  0.00    +0.000 C 
ENDBRANCH   9  15
BRANCH  10  18
ATOM     18  C19 UNL     1      -7.533   2.432  -1.844  0.00  0.00    +0.000 C 
ATOM     19  N1  UNL     1      -8.526   3.110  -2.320  0.00  0.00    +0.000 NA
ENDBRANCH  10  18
ENDBRANCH   5   7
BRANCH   1  20
ATOM     20  O1  UNL     1       0.774   1.101   0.881  0.00  0.00    +0.000 OA
BRANCH  20  21
ATOM     21  C8  UNL     1       2.006   1.100   1.317  0.00  0.00    +0.000 C 
BRANCH  21  25
ATOM     22  C4  UNL     1       4.761  -2.144   1.148  0.00  0.00    +0.000 A 
ATOM     23  C5  UNL     1       4.716  -1.201   0.112  0.00  0.00    +0.000 A 
ATOM     24  C6  UNL     1       3.774  -0.195   0.160  0.00  0.00    +0.000 A 
ATOM     25  C7  UNL     1       2.870  -0.092   1.200  0.00  0.00    +0.000 A 
ATOM     26  C22 UNL     1       2.929  -1.042   2.190  0.00  0.00    +0.000 A 
ATOM     27  C23 UNL     1       3.863  -2.066   2.181  0.00  0.00    +0.000 A 
BRANCH  22  29
ATOM     28  C1  UNL     1       7.190  -2.178   1.394  0.00  0.00    +0.000 C 
ATOM     29  C2  UNL     1       5.931  -3.076   1.143  0.00  0.00    +0.000 C 
ATOM     30  C3  UNL     1       6.152  -3.854  -0.095  0.00  0.00    +0.000 C 
ENDBRANCH  22  29
ENDBRANCH  21  25
ENDBRANCH  20  21
ENDBRANCH   1  20
TORSDOF 7
