REMARK  Name = ./3D_structures\o53_MMV1581553_3D.pdb
REMARK  8 active torsions:
REMARK  status: ('A' for Active; 'I' for Inactive)
REMARK    1  A    between atoms: C1_1  and  O1_2
REMARK    2  A    between atoms: O1_2  and  C2_3
REMARK    3  A    between atoms: C9_10  and  C10_11
REMARK    4  A    between atoms: C10_11  and  N1_12
REMARK    5  A    between atoms: C11_13  and  C12_15
REMARK    6  A    between atoms: N2_24  and  C20_25
REMARK    7  A    between atoms: C20_25  and  C21_26
REMARK    8  A    between atoms: C21_26  and  O5_28
REMARK                            x       y       z     vdW  Elec       q    Type
REMARK                         _______ _______ _______ _____ _____    ______ ____
ROOT
ATOM      1  C2  UNL     1      -4.530   0.346  -1.201  0.00  0.00    +0.000 A 
ATOM      2  C3  UNL     1      -5.182  -0.238  -0.116  0.00  0.00    +0.000 A 
ATOM      3  C4  UNL     1      -4.451  -0.567   1.002  0.00  0.00    +0.000 A 
ATOM      4  C5  UNL     1      -3.093  -0.344   1.102  0.00  0.00    +0.000 A 
ATOM      5  C6  UNL     1      -2.467   0.238   0.010  0.00  0.00    +0.000 A 
ATOM      6  C7  UNL     1      -3.186   0.573  -1.117  0.00  0.00    +0.000 A 
ATOM      7  C8  UNL     1      -1.124   0.355   0.355  0.00  0.00    +0.000 A 
ATOM      8  C9  UNL     1      -0.949  -0.146   1.624  0.00  0.00    +0.000 A 
ATOM      9  N2  UNL     1      -2.155  -0.557   2.041  0.00  0.00    +0.000 N 
ENDROOT
BRANCH   1  11
ATOM     10  C1  UNL     1      -4.788   1.251  -3.469  0.00  0.00    +0.000 C 
ATOM     11  O1  UNL     1      -5.302   0.661  -2.306  0.00  0.00    +0.000 OA
ENDBRANCH   1  11
BRANCH   8  12
ATOM     12  C10 UNL     1       0.329  -0.234   2.419  0.00  0.00    +0.000 C 
BRANCH  12  13
ATOM     13  N1  UNL     1       1.458   0.164   1.650  0.00  0.00    +0.000 N 
ATOM     14  C11 UNL     1       1.896  -0.454   0.456  0.00  0.00    +0.000 C 
ATOM     15  O2  UNL     1       1.250  -1.434   0.027  0.00  0.00    +0.000 OA
ATOM     16  H10 UNL     1       2.038   0.984   1.968  0.00  0.00    +0.000 HD
BRANCH  14  17
ATOM     17  C12 UNL     1       3.066   0.001  -0.293  0.00  0.00    +0.000 A 
ATOM     18  O3  UNL     1       3.838   1.005   0.028  0.00  0.00    +0.000 OA
ATOM     19  C13 UNL     1       4.819   1.197  -0.820  0.00  0.00    +0.000 A 
ATOM     20  C14 UNL     1       5.850   2.105  -0.895  0.00  0.00    +0.000 A 
ATOM     21  C15 UNL     1       6.732   2.040  -1.932  0.00  0.00    +0.000 A 
ATOM     22  C16 UNL     1       6.628   1.089  -2.920  0.00  0.00    +0.000 A 
ATOM     23  C17 UNL     1       5.603   0.190  -2.842  0.00  0.00    +0.000 A 
ATOM     24  C18 UNL     1       4.695   0.227  -1.808  0.00  0.00    +0.000 A 
ATOM     25  C19 UNL     1       3.588  -0.515  -1.460  0.00  0.00    +0.000 A 
ENDBRANCH  14  17
ENDBRANCH  12  13
ENDBRANCH   8  12
BRANCH   9  26
ATOM     26  C20 UNL     1      -2.455  -1.157   3.326  0.00  0.00    +0.000 C 
BRANCH  26  27
ATOM     27  C21 UNL     1      -2.315  -2.630   3.248  0.00  0.00    +0.000 C 
ATOM     28  O4  UNL     1      -1.980  -3.153   2.167  0.00  0.00    +0.000 OA
BRANCH  27  29
ATOM     29  O5  UNL     1      -2.546  -3.449   4.344  0.00  0.00    +0.000 OA
ATOM     30  H18 UNL     1      -2.118  -4.382   4.315  0.00  0.00    +0.000 HD
ENDBRANCH  27  29
ENDBRANCH  26  27
ENDBRANCH   9  26
TORSDOF 7
