REMARK  Name = ./3D_structures\o54_MMV1581548_3D.pdb
REMARK  7 active torsions:
REMARK  status: ('A' for Active; 'I' for Inactive)
REMARK    1  A    between atoms: C1_1  and  C2_2
REMARK    2  A    between atoms: C2_2  and  C3_3
REMARK    3  A    between atoms: C2_2  and  C4_4
REMARK    4  A    between atoms: C2_2  and  C5_5
REMARK    5  A    between atoms: C9_9  and  C11_12
REMARK    6  A    between atoms: C10_10  and  O1_11
REMARK    7  A    between atoms: C14_16  and  C18_21
REMARK                            x       y       z     vdW  Elec       q    Type
REMARK                         _______ _______ _______ _____ _____    ______ ____
ROOT
ATOM      1  C11 UNL     1       0.740  -0.148  -0.011  0.00  0.00    +0.000 A 
ATOM      2  N1  UNL     1       1.882  -0.873  -0.059  0.00  0.00    +0.000 NA
ATOM      3  C12 UNL     1       2.956  -0.081  -0.122  0.00  0.00    +0.000 A 
ATOM      4  C13 UNL     1       4.326  -0.294  -0.187  0.00  0.00    +0.000 A 
ATOM      5  C14 UNL     1       5.237   0.734  -0.244  0.00  0.00    +0.000 A 
ATOM      6  C15 UNL     1       4.768   2.024  -0.236  0.00  0.00    +0.000 A 
ATOM      7  C16 UNL     1       3.387   2.239  -0.170  0.00  0.00    +0.000 A 
ATOM      8  C17 UNL     1       2.481   1.206  -0.113  0.00  0.00    +0.000 A 
ATOM      9  N2  UNL     1       1.127   1.134  -0.046  0.00  0.00    +0.000 N 
ATOM     10  H17 UNL     1       0.528   1.984  -0.026  0.00  0.00    +0.000 HD
ENDROOT
BRANCH   1  15
ATOM     11  C5  UNL     1      -3.022  -0.502   0.178  0.00  0.00    +0.000 A 
ATOM     12  C6  UNL     1      -3.143  -1.876   0.200  0.00  0.00    +0.000 A 
ATOM     13  C7  UNL     1      -2.019  -2.685   0.155  0.00  0.00    +0.000 A 
ATOM     14  C8  UNL     1      -0.786  -2.083   0.087  0.00  0.00    +0.000 A 
ATOM     15  C9  UNL     1      -0.623  -0.710   0.063  0.00  0.00    +0.000 A 
ATOM     16  C10 UNL     1      -1.758   0.058   0.109  0.00  0.00    +0.000 A 
BRANCH  11  18
ATOM     17  C1  UNL     1      -4.338   1.220   1.387  0.00  0.00    +0.000 C 
ATOM     18  C2  UNL     1      -4.257   0.303   0.224  0.00  0.00    +0.000 C 
ATOM     19  C3  UNL     1      -4.363   1.078  -1.075  0.00  0.00    +0.000 C 
ATOM     20  C4  UNL     1      -5.487  -0.611   0.244  0.00  0.00    +0.000 C 
ENDBRANCH  11  18
BRANCH  16  21
ATOM     21  O1  UNL     1      -1.667   1.417   0.089  0.00  0.00    +0.000 OA
ATOM     22  H13 UNL     1      -2.400   2.097   0.120  0.00  0.00    +0.000 HD
ENDBRANCH  16  21
ENDBRANCH   1  15
BRANCH   5  23
ATOM     23  C18 UNL     1       6.659   0.403  -0.311  0.00  0.00    +0.000 C 
ATOM     24  N3  UNL     1       7.595   1.278  -0.367  0.00  0.00    +0.000 NA
ATOM     25  N4  UNL     1       7.045  -0.989  -0.314  0.00  0.00    +0.000 N 
ATOM     26  H18 UNL     1       7.354   2.284  -0.367  0.00  0.00    +0.000 HD
ATOM     27  H19 UNL     1       7.081  -1.505   0.585  0.00  0.00    +0.000 HD
ATOM     28  H20 UNL     1       7.283  -1.477  -1.190  0.00  0.00    +0.000 HD
ENDBRANCH   5  23
TORSDOF 4
