REMARK  Name = ./3D_structures\o55_MMV1580850_3D.pdb
REMARK  4 active torsions:
REMARK  status: ('A' for Active; 'I' for Inactive)
REMARK    1  A    between atoms: C4_5  and  N1_8
REMARK    2  A    between atoms: C8_10  and  C9_11
REMARK    3  A    between atoms: C9_11  and  N2_12
REMARK    4  A    between atoms: C10_13  and  C17_21
REMARK                            x       y       z     vdW  Elec       q    Type
REMARK                         _______ _______ _______ _____ _____    ______ ____
ROOT
ATOM      1  N2  UNL     1      -1.899  -0.983   0.472  0.00  0.00    +0.000 N 
ATOM      2  C10 UNL     1      -2.388  -0.038  -0.333  0.00  0.00    +0.000 A 
ATOM      3  N3  UNL     1      -3.085  -0.735  -1.304  0.00  0.00    +0.000 NA
ATOM      4  C11 UNL     1      -3.010  -2.041  -1.082  0.00  0.00    +0.000 A 
ATOM      5  C12 UNL     1      -3.509  -3.172  -1.724  0.00  0.00    +0.000 A 
ATOM      6  C13 UNL     1      -3.262  -4.442  -1.252  0.00  0.00    +0.000 A 
ATOM      7  C14 UNL     1      -2.506  -4.642  -0.117  0.00  0.00    +0.000 A 
ATOM      8  C15 UNL     1      -2.018  -3.519   0.510  0.00  0.00    +0.000 A 
ATOM      9  C16 UNL     1      -2.259  -2.242   0.047  0.00  0.00    +0.000 A 
ENDROOT
BRANCH   2  10
ATOM     10  C17 UNL     1      -2.301   1.413  -0.320  0.00  0.00    +0.000 A 
ATOM     11  C18 UNL     1      -2.985   2.085  -1.351  0.00  0.00    +0.000 A 
ATOM     12  C19 UNL     1      -2.971   3.459  -1.439  0.00  0.00    +0.000 A 
ATOM     13  C20 UNL     1      -2.280   4.205  -0.509  0.00  0.00    +0.000 A 
ATOM     14  C21 UNL     1      -1.600   3.577   0.512  0.00  0.00    +0.000 A 
ATOM     15  F2  UNL     1      -0.906   4.233   1.454  0.00  0.00    +0.000 F 
ATOM     16  C22 UNL     1      -1.637   2.186   0.569  0.00  0.00    +0.000 A 
ENDBRANCH   2  10
BRANCH   1  17
ATOM     17  C9  UNL     1      -1.082  -0.837   1.637  0.00  0.00    +0.000 C 
BRANCH  17  20
ATOM     18  N1  UNL     1       2.493  -0.413   0.789  0.00  0.00    +0.000 N 
ATOM     19  C7  UNL     1       1.241   0.103   1.004  0.00  0.00    +0.000 A 
ATOM     20  C8  UNL     1       0.365  -0.900   1.324  0.00  0.00    +0.000 A 
ATOM     21  N4  UNL     1       1.138  -2.029   1.293  0.00  0.00    +0.000 NA
ATOM     22  N5  UNL     1       2.374  -1.702   0.976  0.00  0.00    +0.000 NA
BRANCH  18  27
ATOM     23  F1  UNL     1       7.127   2.314  -0.745  0.00  0.00    +0.000 F 
ATOM     24  C1  UNL     1       5.997   1.651  -0.369  0.00  0.00    +0.000 A 
ATOM     25  C2  UNL     1       5.581   0.514  -1.024  0.00  0.00    +0.000 A 
ATOM     26  C3  UNL     1       4.435  -0.140  -0.626  0.00  0.00    +0.000 A 
ATOM     27  C4  UNL     1       3.660   0.313   0.438  0.00  0.00    +0.000 A 
ATOM     28  C5  UNL     1       4.072   1.450   1.098  0.00  0.00    +0.000 A 
ATOM     29  C6  UNL     1       5.222   2.101   0.694  0.00  0.00    +0.000 A 
ENDBRANCH  18  27
ENDBRANCH  17  20
ENDBRANCH   1  17
TORSDOF 4
