REMARK  Name = ./3D_structures\o56_MMV002740_3D.pdb
REMARK  8 active torsions:
REMARK  status: ('A' for Active; 'I' for Inactive)
REMARK    1  A    between atoms: C1_1  and  C2_2
REMARK    2  A    between atoms: C3_3  and  C4_4
REMARK    3  A    between atoms: N1_6  and  C5_7
REMARK    4  A    between atoms: C7_10  and  C8_11
REMARK    5  A    between atoms: C7_10  and  C9_12
REMARK    6  A    between atoms: C10_13  and  C12_17
REMARK    7  A    between atoms: C12_17  and  O3_18
REMARK    8  A    between atoms: C13_20  and  C14_23
REMARK                            x       y       z     vdW  Elec       q    Type
REMARK                         _______ _______ _______ _____ _____    ______ ____
ROOT
ATOM      1  C4  UNL     1       1.093  -2.503   0.066  0.00  0.00    +0.000 C 
ATOM      2  O1  UNL     1       0.530  -3.628   0.296  0.00  0.00    +0.000 OA
ATOM      3  N1  UNL     1       0.220  -1.396   0.095  0.00  0.00    +0.000 N 
ATOM      4  H4  UNL     1       0.599  -0.453  -0.049  0.00  0.00    +0.000 HD
ENDROOT
BRANCH   3   5
ATOM      5  C5  UNL     1      -1.199  -1.493   0.348  0.00  0.00    +0.000 C 
ATOM      6  C6  UNL     1      -1.887  -0.466   1.120  0.00  0.00    +0.000 C 
ATOM      7  S1  UNL     1      -0.926   0.973   1.702  0.00  0.00    +0.000 S 
ATOM      8  C7  UNL     1      -2.190   2.185   1.166  0.00  0.00    +0.000 C 
ATOM      9  C8  UNL     1      -2.958   2.589   2.394  0.00  0.00    +0.000 C 
ATOM     10  C9  UNL     1      -1.580   3.397   0.533  0.00  0.00    +0.000 C 
ATOM     11  C10 UNL     1      -3.086   1.407   0.265  0.00  0.00    +0.000 C 
ATOM     12  N2  UNL     1      -2.456   0.171  -0.083  0.00  0.00    +0.000 N 
ATOM     13  C11 UNL     1      -1.961  -0.942  -0.811  0.00  0.00    +0.000 C 
ATOM     14  O2  UNL     1      -2.066  -1.386  -1.990  0.00  0.00    +0.000 OA
BRANCH  11  15
ATOM     15  C12 UNL     1      -4.434   1.145   0.806  0.00  0.00    +0.000 C 
ATOM     16  O4  UNL     1      -5.240   2.024   1.206  0.00  0.00    +0.000 OA
BRANCH  15  17
ATOM     17  O3  UNL     1      -4.890  -0.167   0.897  0.00  0.00    +0.000 OA
ATOM     18  H14 UNL     1      -5.610  -0.410   1.576  0.00  0.00    +0.000 HD
ENDBRANCH  15  17
ENDBRANCH  11  15
ENDBRANCH   3   5
BRANCH   1  21
ATOM     19  C1  UNL     1       2.905  -4.888   0.696  0.00  0.00    +0.000 C 
ATOM     20  C2  UNL     1       3.347  -3.570   0.094  0.00  0.00    +0.000 A 
ATOM     21  C3  UNL     1       2.521  -2.498  -0.185  0.00  0.00    +0.000 A 
ATOM     22  C13 UNL     1       3.302  -1.518  -0.715  0.00  0.00    +0.000 A 
ATOM     23  N3  UNL     1       4.574  -2.044  -0.730  0.00  0.00    +0.000 NA
ATOM     24  O5  UNL     1       4.550  -3.238  -0.251  0.00  0.00    +0.000 OA
BRANCH  22  25
ATOM     25  C14 UNL     1       2.979  -0.190  -1.192  0.00  0.00    +0.000 A 
ATOM     26  C15 UNL     1       3.552   0.909  -0.607  0.00  0.00    +0.000 A 
ATOM     27 CL1  UNL     1       4.636   0.768   0.764  0.00  0.00    +0.000 Cl
ATOM     28  C16 UNL     1       3.289   2.198  -1.090  0.00  0.00    +0.000 A 
ATOM     29  C17 UNL     1       2.452   2.369  -2.158  0.00  0.00    +0.000 A 
ATOM     30  C18 UNL     1       1.872   1.278  -2.753  0.00  0.00    +0.000 A 
ATOM     31  C19 UNL     1       2.140  -0.009  -2.263  0.00  0.00    +0.000 A 
ENDBRANCH  22  25
ENDBRANCH   1  21
TORSDOF 5
