REMARK  Name = ./3D_structures\o57_MMV1579783_3D.pdb
REMARK  8 active torsions:
REMARK  status: ('A' for Active; 'I' for Inactive)
REMARK    1  A    between atoms: C1_1  and  C2_2
REMARK    2  A    between atoms: C2_2  and  C3_3
REMARK    3  A    between atoms: C3_3  and  C4_4
REMARK    4  A    between atoms: C4_4  and  S1_5
REMARK    5  A    between atoms: S1_5  and  C5_6
REMARK    6  A    between atoms: C6_8  and  N2_9
REMARK    7  A    between atoms: N4_16  and  C10_17
REMARK    8  A    between atoms: C10_17  and  C11_18
REMARK                            x       y       z     vdW  Elec       q    Type
REMARK                         _______ _______ _______ _____ _____    ______ ____
ROOT
ATOM      1  C5  UNL     1       1.400   1.361   0.014  0.00  0.00    +0.000 A 
ATOM      2  N1  UNL     1       2.142   1.081  -1.061  0.00  0.00    +0.000 NA
ATOM      3  C6  UNL     1       1.645   0.780  -2.274  0.00  0.00    +0.000 A 
ATOM      4  C7  UNL     1       0.271   0.771  -2.373  0.00  0.00    +0.000 A 
ATOM      5  N3  UNL     1      -0.315   0.487  -3.545  0.00  0.00    +0.000 N 
ATOM      6  C8  UNL     1      -1.652   0.473  -3.684  0.00  0.00    +0.000 A 
ATOM      7  O1  UNL     1      -2.173   0.199  -4.816  0.00  0.00    +0.000 OA
ATOM      8  C9  UNL     1      -2.452   0.750  -2.625  0.00  0.00    +0.000 A 
ATOM      9  O2  UNL     1      -3.706   0.750  -2.710  0.00  0.00    +0.000 OA
ATOM     10  N4  UNL     1      -1.919   1.043  -1.420  0.00  0.00    +0.000 N 
ATOM     11  C17 UNL     1      -0.559   1.052  -1.299  0.00  0.00    +0.000 A 
ATOM     12  N5  UNL     1       0.038   1.339  -0.140  0.00  0.00    +0.000 NA
ATOM     13  H12 UNL     1       0.327   0.274  -4.355  0.00  0.00    +0.000 HD
ENDROOT
BRANCH   3  14
ATOM     14  N2  UNL     1       2.498   0.492  -3.375  0.00  0.00    +0.000 N 
ATOM     15  H10 UNL     1       2.812   1.198  -4.063  0.00  0.00    +0.000 HD
ATOM     16  H11 UNL     1       2.815  -0.496  -3.478  0.00  0.00    +0.000 HD
ENDBRANCH   3  14
BRANCH   1  17
ATOM     17  S1  UNL     1       2.109   1.751   1.585  0.00  0.00    +0.000 S 
BRANCH  17  18
ATOM     18  C4  UNL     1       2.293   0.350   2.635  0.00  0.00    +0.000 C 
BRANCH  18  19
ATOM     19  C3  UNL     1       3.306  -0.678   2.353  0.00  0.00    +0.000 C 
BRANCH  19  21
ATOM     20  C1  UNL     1       4.341  -2.496   1.003  0.00  0.00    +0.000 C 
ATOM     21  C2  UNL     1       3.224  -1.434   1.069  0.00  0.00    +0.000 C 
ENDBRANCH  19  21
ENDBRANCH  18  19
ENDBRANCH  17  18
ENDBRANCH   1  17
BRANCH  10  22
ATOM     22  C10 UNL     1      -2.697   1.350  -0.265  0.00  0.00    +0.000 C 
BRANCH  22  23
ATOM     23  C11 UNL     1      -3.099   0.218   0.572  0.00  0.00    +0.000 A 
ATOM     24  C12 UNL     1      -2.343  -0.186   1.650  0.00  0.00    +0.000 A 
ATOM     25  C13 UNL     1      -2.698  -1.260   2.468  0.00  0.00    +0.000 A 
ATOM     26  C14 UNL     1      -3.850  -1.977   2.221  0.00  0.00    +0.000 A 
ATOM     27  C15 UNL     1      -4.617  -1.583   1.146  0.00  0.00    +0.000 A 
ATOM     28  C16 UNL     1      -4.255  -0.521   0.348  0.00  0.00    +0.000 A 
ENDBRANCH  22  23
ENDBRANCH  10  22
TORSDOF 7
