REMARK  Name = ./3D_structures\o58_MMV1578925_3D.pdb
REMARK  6 active torsions:
REMARK  status: ('A' for Active; 'I' for Inactive)
REMARK    1  A    between atoms: C1_1  and  C2_2
REMARK    2  A    between atoms: C2_2  and  O1_3
REMARK    3  A    between atoms: C2_2  and  C9_12
REMARK    4  A    between atoms: O1_3  and  C3_4
REMARK    5  A    between atoms: N1_14  and  C10_15
REMARK    6  A    between atoms: C10_15  and  C11_16
REMARK                            x       y       z     vdW  Elec       q    Type
REMARK                         _______ _______ _______ _____ _____    ______ ____
ROOT
ATOM      1  C9  UNL     1      -0.376   1.085   1.039  0.00  0.00    +0.000 C 
ATOM      2  O2  UNL     1      -0.309   0.012   1.675  0.00  0.00    +0.000 OA
ATOM      3  N1  UNL     1       0.797   1.863   0.889  0.00  0.00    +0.000 N 
ATOM      4  H8  UNL     1       0.688   2.751   0.349  0.00  0.00    +0.000 HD
ENDROOT
BRANCH   1   6
ATOM      5  C1  UNL     1      -2.048   2.846   1.155  0.00  0.00    +0.000 C 
ATOM      6  C2  UNL     1      -1.711   1.505   0.458  0.00  0.00    +0.000 C 
BRANCH   6   7
ATOM      7  O1  UNL     1      -2.633   0.574   0.753  0.00  0.00    +0.000 OA
BRANCH   7   8
ATOM      8  C3  UNL     1      -3.551  -0.127   0.060  0.00  0.00    +0.000 A 
ATOM      9  C4  UNL     1      -4.344  -1.055   0.794  0.00  0.00    +0.000 A 
ATOM     10  C5  UNL     1      -5.304  -1.822   0.213  0.00  0.00    +0.000 A 
ATOM     11  C6  UNL     1      -5.573  -1.748  -1.136  0.00  0.00    +0.000 A 
ATOM     12 CL1  UNL     1      -6.816  -2.754  -1.834  0.00  0.00    +0.000 Cl
ATOM     13  C7  UNL     1      -4.822  -0.863  -1.861  0.00  0.00    +0.000 A 
ATOM     14  C8  UNL     1      -3.825  -0.061  -1.281  0.00  0.00    +0.000 A 
ATOM     15 CL2  UNL     1      -2.940   1.036  -2.321  0.00  0.00    +0.000 Cl
ENDBRANCH   7   8
ENDBRANCH   6   7
ENDBRANCH   1   6
BRANCH   3  16
ATOM     16  C10 UNL     1       2.079   1.512   1.419  0.00  0.00    +0.000 C 
BRANCH  16  17
ATOM     17  C11 UNL     1       2.750   0.445   0.634  0.00  0.00    +0.000 A 
ATOM     18  C12 UNL     1       2.142  -0.153  -0.450  0.00  0.00    +0.000 A 
ATOM     19  C13 UNL     1       2.788  -1.150  -1.172  0.00  0.00    +0.000 A 
ATOM     20  C14 UNL     1       4.049  -1.577  -0.837  0.00  0.00    +0.000 A 
ATOM     21  O3  UNL     1       4.931  -2.540  -1.364  0.00  0.00    +0.000 OA
ATOM     22  C15 UNL     1       6.244  -2.144  -0.935  0.00  0.00    +0.000 C 
ATOM     23  O4  UNL     1       5.908  -1.602   0.351  0.00  0.00    +0.000 OA
ATOM     24  C16 UNL     1       4.664  -0.983   0.248  0.00  0.00    +0.000 A 
ATOM     25  C17 UNL     1       4.016   0.016   0.970  0.00  0.00    +0.000 A 
ENDBRANCH  16  17
ENDBRANCH   3  16
TORSDOF 5
