REMARK  Name = ./3D_structures\o59_MMV1578889_3D.pdb
REMARK  2 active torsions:
REMARK  status: ('A' for Active; 'I' for Inactive)
REMARK    1  A    between atoms: C5_6  and  C6_7
REMARK    2  A    between atoms: C7_8  and  C8_9
REMARK                            x       y       z     vdW  Elec       q    Type
REMARK                         _______ _______ _______ _____ _____    ______ ____
ROOT
ATOM      1  F1  UNL     1      -6.232   0.514   0.521  0.00  0.00    +0.000 F 
ATOM      2  C1  UNL     1      -4.904   0.379   0.308  0.00  0.00    +0.000 A 
ATOM      3  C2  UNL     1      -4.019   0.437   1.363  0.00  0.00    +0.000 A 
ATOM      4  C3  UNL     1      -2.660   0.293   1.103  0.00  0.00    +0.000 A 
ATOM      5  C4  UNL     1      -2.175   0.097  -0.167  0.00  0.00    +0.000 A 
ATOM      6  C5  UNL     1      -0.905  -0.069  -0.676  0.00  0.00    +0.000 A 
ATOM      7  C13 UNL     1      -1.023  -0.226  -2.026  0.00  0.00    +0.000 A 
ATOM      8  N2  UNL     1      -2.340  -0.154  -2.317  0.00  0.00    +0.000 N 
ATOM      9  C14 UNL     1      -3.071   0.042  -1.210  0.00  0.00    +0.000 A 
ATOM     10  C15 UNL     1      -4.430   0.185  -0.954  0.00  0.00    +0.000 A 
ATOM     11  H10 UNL     1      -2.722  -0.243  -3.291  0.00  0.00    +0.000 HD
ENDROOT
BRANCH   6  12
ATOM     12  C6  UNL     1       0.335  -0.071   0.135  0.00  0.00    +0.000 C 
ATOM     13  C7  UNL     1       1.516  -0.236  -0.422  0.00  0.00    +0.000 C 
BRANCH  13  14
ATOM     14  C8  UNL     1       2.788  -0.251   0.299  0.00  0.00    +0.000 A 
ATOM     15  C9  UNL     1       3.977  -0.437  -0.416  0.00  0.00    +0.000 A 
ATOM     16  C10 UNL     1       5.196  -0.460   0.204  0.00  0.00    +0.000 A 
ATOM     17  C11 UNL     1       5.213  -0.293   1.571  0.00  0.00    +0.000 A 
ATOM     18  N1  UNL     1       4.108  -0.112   2.300  0.00  0.00    +0.000 NA
ATOM     19  C12 UNL     1       2.921  -0.095   1.654  0.00  0.00    +0.000 A 
ENDBRANCH  13  14
ENDBRANCH   6  12
TORSDOF 2
