REMARK  Name = ./3D_structures\o5_MMV637528_3D.pdb
REMARK  13 active torsions:
REMARK  status: ('A' for Active; 'I' for Inactive)
REMARK    1  A    between atoms: C2_3  and  C7_9
REMARK    2  A    between atoms: C7_9  and  C33_44
REMARK    3  A    between atoms: C8_11  and  C9_12
REMARK    4  A    between atoms: C9_12  and  O2_13
REMARK    5  A    between atoms: O2_13  and  C10_14
REMARK    6  A    between atoms: C13_17  and  N1_18
REMARK    7  A    between atoms: N2_21  and  C16_22
REMARK    8  A    between atoms: C19_25  and  N3_26
REMARK    9  A    between atoms: N4_29  and  C21_30
REMARK   10  A    between atoms: C21_30  and  C22_31
REMARK   11  A    between atoms: C21_30  and  C24_33
REMARK   12  A    between atoms: C22_31  and  C23_32
REMARK   13  A    between atoms: C33_44  and  N6_45
REMARK                            x       y       z     vdW  Elec       q    Type
REMARK                         _______ _______ _______ _____ _____    ______ ____
ROOT
ATOM      1  C10 UNL     1      -3.512   0.143   1.834  0.00  0.00    +0.000 A 
ATOM      2  C11 UNL     1      -2.621  -0.960   1.865  0.00  0.00    +0.000 A 
ATOM      3  C12 UNL     1      -1.495  -0.983   1.066  0.00  0.00    +0.000 A 
ATOM      4  C13 UNL     1      -1.194   0.047   0.218  0.00  0.00    +0.000 A 
ATOM      5  C30 UNL     1      -2.023   1.115   0.164  0.00  0.00    +0.000 A 
ATOM      6  C31 UNL     1      -3.170   1.150   0.971  0.00  0.00    +0.000 A 
ENDROOT
BRANCH   4   7
ATOM      7  N1  UNL     1      -0.047  -0.011  -0.616  0.00  0.00    +0.000 N 
ATOM      8  C14 UNL     1       0.574   1.203  -1.124  0.00  0.00    +0.000 C 
ATOM      9  C15 UNL     1       1.823   0.827  -1.876  0.00  0.00    +0.000 C 
ATOM     10  N2  UNL     1       2.652  -0.122  -1.166  0.00  0.00    +0.000 N 
ATOM     11  C28 UNL     1       1.987  -1.311  -0.675  0.00  0.00    +0.000 C 
ATOM     12  C29 UNL     1       0.540  -1.263  -1.027  0.00  0.00    +0.000 C 
BRANCH  10  13
ATOM     13  C16 UNL     1       4.043   0.035  -0.927  0.00  0.00    +0.000 A 
ATOM     14  C17 UNL     1       4.732   1.214  -1.089  0.00  0.00    +0.000 A 
ATOM     15  C18 UNL     1       6.106   1.285  -0.866  0.00  0.00    +0.000 A 
ATOM     16  C19 UNL     1       6.854   0.189  -0.473  0.00  0.00    +0.000 A 
ATOM     17  C26 UNL     1       6.167  -0.986  -0.311  0.00  0.00    +0.000 A 
ATOM     18  C27 UNL     1       4.781  -1.060  -0.534  0.00  0.00    +0.000 A 
BRANCH  16  19
ATOM     19  N3  UNL     1       8.265   0.300  -0.274  0.00  0.00    +0.000 N 
ATOM     20  C20 UNL     1       9.090  -0.598   0.267  0.00  0.00    +0.000 A 
ATOM     21  O3  UNL     1       8.814  -1.729   0.730  0.00  0.00    +0.000 OA
ATOM     22  N4  UNL     1      10.331  -0.070   0.236  0.00  0.00    +0.000 N 
ATOM     23  N5  UNL     1      10.270   1.146  -0.320  0.00  0.00    +0.000 NA
ATOM     24  C25 UNL     1       9.009   1.381  -0.636  0.00  0.00    +0.000 A 
BRANCH  22  25
ATOM     25  C21 UNL     1      11.557  -0.654   0.693  0.00  0.00    +0.000 C 
ATOM     26  C24 UNL     1      11.257  -1.752   1.665  0.00  0.00    +0.000 C 
BRANCH  25  27
ATOM     27  C22 UNL     1      12.364  -1.171  -0.494  0.00  0.00    +0.000 C 
ATOM     28  C23 UNL     1      12.690  -0.025  -1.438  0.00  0.00    +0.000 C 
ENDBRANCH  25  27
ENDBRANCH  22  25
ENDBRANCH  16  19
ENDBRANCH  10  13
ENDBRANCH   4   7
BRANCH   1  29
ATOM     29  O2  UNL     1      -4.606   0.120   2.642  0.00  0.00    +0.000 OA
BRANCH  29  30
ATOM     30  C9  UNL     1      -5.634   1.022   2.783  0.00  0.00    +0.000 C 
BRANCH  30  33
ATOM     31  C7  UNL     1      -8.369   0.240   0.844  0.00  0.00    +0.000 C 
ATOM     32  O1  UNL     1      -7.109  -0.030   1.284  0.00  0.00    +0.000 OA
ATOM     33  C8  UNL     1      -6.513   1.192   1.592  0.00  0.00    +0.000 C 
ATOM     34  C32 UNL     1      -7.695   2.089   1.942  0.00  0.00    +0.000 C 
ATOM     35  O4  UNL     1      -8.676   1.584   1.123  0.00  0.00    +0.000 OA
BRANCH  31  38
ATOM     36 CL1  UNL     1      -7.425  -2.423  -0.250  0.00  0.00    +0.000 Cl
ATOM     37  C1  UNL     1      -7.946  -1.058  -1.242  0.00  0.00    +0.000 A 
ATOM     38  C2  UNL     1      -8.332   0.123  -0.651  0.00  0.00    +0.000 A 
ATOM     39  C3  UNL     1      -8.703   1.192  -1.437  0.00  0.00    +0.000 A 
ATOM     40  C4  UNL     1      -8.693   1.092  -2.788  0.00  0.00    +0.000 A 
ATOM     41  C5  UNL     1      -8.305  -0.095  -3.418  0.00  0.00    +0.000 A 
ATOM     42  C6  UNL     1      -7.936  -1.157  -2.619  0.00  0.00    +0.000 A 
ATOM     43 CL2  UNL     1      -8.275  -0.249  -5.156  0.00  0.00    +0.000 Cl
ENDBRANCH  31  38
BRANCH  31  44
ATOM     44  C33 UNL     1      -9.454  -0.659   1.365  0.00  0.00    +0.000 C 
BRANCH  44  45
ATOM     45  N6  UNL     1      -9.525  -0.567   2.828  0.00  0.00    +0.000 N 
ATOM     46  N7  UNL     1      -8.881  -1.284   3.716  0.00  0.00    +0.000 NA
ATOM     47  C34 UNL     1      -9.244  -0.861   4.928  0.00  0.00    +0.000 A 
ATOM     48  N8  UNL     1     -10.126   0.135   4.781  0.00  0.00    +0.000 NA
ATOM     49  C35 UNL     1     -10.296   0.311   3.463  0.00  0.00    +0.000 A 
ENDBRANCH  44  45
ENDBRANCH  31  44
ENDBRANCH  30  33
ENDBRANCH  29  30
ENDBRANCH   1  29
TORSDOF 11
