REMARK  Name = ./3D_structures\o60_MMV1578572_3D.pdb
REMARK  9 active torsions:
REMARK  status: ('A' for Active; 'I' for Inactive)
REMARK    1  A    between atoms: C1_1  and  O1_2
REMARK    2  A    between atoms: O1_2  and  C2_3
REMARK    3  A    between atoms: C4_5  and  N1_6
REMARK    4  A    between atoms: C5_7  and  C6_9
REMARK    5  A    between atoms: C6_9  and  N2_10
REMARK    6  A    between atoms: C8_14  and  C10_17
REMARK    7  A    between atoms: C8_14  and  C16_23
REMARK    8  A    between atoms: C23_30  and  O5_31
REMARK    9  A    between atoms: O5_31  and  C24_32
REMARK                            x       y       z     vdW  Elec       q    Type
REMARK                         _______ _______ _______ _____ _____    ______ ____
ROOT
ATOM      1  N2  UNL     1      -0.653  -1.474   0.796  0.00  0.00    +0.000 N 
ATOM      2  C7  UNL     1      -0.959  -0.703   1.947  0.00  0.00    +0.000 C 
ATOM      3  O3  UNL     1      -0.441  -0.790   3.098  0.00  0.00    +0.000 OA
ATOM      4  N3  UNL     1      -1.993   0.248   1.626  0.00  0.00    +0.000 N 
ATOM      5  C8  UNL     1      -2.567  -0.159   0.376  0.00  0.00    +0.000 C 
ATOM      6  C9  UNL     1      -1.499  -0.996  -0.230  0.00  0.00    +0.000 C 
ATOM      7  O4  UNL     1      -1.322  -1.271  -1.446  0.00  0.00    +0.000 OA
ATOM      8  H8  UNL     1      -2.285   1.071   2.177  0.00  0.00    +0.000 HD
ENDROOT
BRANCH   5   9
ATOM      9  C10 UNL     1      -3.697  -1.089   0.664  0.00  0.00    +0.000 A 
ATOM     10  C11 UNL     1      -3.915  -2.203  -0.107  0.00  0.00    +0.000 A 
ATOM     11  C12 UNL     1      -4.963  -3.038   0.181  0.00  0.00    +0.000 A 
ATOM     12  C13 UNL     1      -5.784  -2.757   1.233  0.00  0.00    +0.000 A 
ATOM     13  C14 UNL     1      -5.590  -1.631   2.039  0.00  0.00    +0.000 A 
ATOM     14  C15 UNL     1      -4.521  -0.810   1.719  0.00  0.00    +0.000 A 
ENDBRANCH   5   9
BRANCH   5  15
ATOM     15  C16 UNL     1      -2.987   0.940  -0.505  0.00  0.00    +0.000 A 
ATOM     16  C17 UNL     1      -2.946   2.260  -0.123  0.00  0.00    +0.000 A 
ATOM     17  C18 UNL     1      -3.366   3.251  -1.022  0.00  0.00    +0.000 A 
ATOM     18  C19 UNL     1      -3.822   2.961  -2.286  0.00  0.00    +0.000 A 
ATOM     19  C20 UNL     1      -3.857   1.633  -2.655  0.00  0.00    +0.000 A 
ATOM     20  C21 UNL     1      -3.447   0.664  -1.777  0.00  0.00    +0.000 A 
ENDBRANCH   5  15
BRANCH   1  21
ATOM     21  C6  UNL     1       0.345  -2.526   0.763  0.00  0.00    +0.000 C 
BRANCH  21  23
ATOM     22  N1  UNL     1       1.794  -0.629   0.135  0.00  0.00    +0.000 N 
ATOM     23  C5  UNL     1       1.695  -2.000   0.388  0.00  0.00    +0.000 C 
ATOM     24  O2  UNL     1       2.635  -2.781   0.320  0.00  0.00    +0.000 OA
ATOM     25  H5  UNL     1       0.911  -0.018   0.220  0.00  0.00    +0.000 HD
BRANCH  22  28
ATOM     26  C2  UNL     1       5.391   0.137  -0.556  0.00  0.00    +0.000 A 
ATOM     27  C3  UNL     1       4.220  -0.543  -0.175  0.00  0.00    +0.000 A 
ATOM     28  C4  UNL     1       2.983   0.025  -0.224  0.00  0.00    +0.000 A 
ATOM     29  C22 UNL     1       2.894   1.340  -0.673  0.00  0.00    +0.000 A 
ATOM     30  C23 UNL     1       4.022   2.017  -1.048  0.00  0.00    +0.000 A 
ATOM     31  C25 UNL     1       5.271   1.421  -0.991  0.00  0.00    +0.000 A 
BRANCH  26  33
ATOM     32  C1  UNL     1       6.702  -1.804  -0.036  0.00  0.00    +0.000 C 
ATOM     33  O1  UNL     1       6.628  -0.479  -0.491  0.00  0.00    +0.000 OA
ENDBRANCH  26  33
BRANCH  30  34
ATOM     34  O5  UNL     1       3.930   3.321  -1.493  0.00  0.00    +0.000 OA
ATOM     35  C24 UNL     1       5.090   4.007  -1.875  0.00  0.00    +0.000 C 
ENDBRANCH  30  34
ENDBRANCH  22  28
ENDBRANCH  21  23
ENDBRANCH   1  21
TORSDOF 7
