REMARK  Name = ./3D_structures\o61_MMV1578568_3D.pdb
REMARK  5 active torsions:
REMARK  status: ('A' for Active; 'I' for Inactive)
REMARK    1  A    between atoms: C7_9  and  C8_10
REMARK    2  A    between atoms: C8_10  and  N2_11
REMARK    3  A    between atoms: C11_14  and  N3_17
REMARK    4  A    between atoms: N3_17  and  C14_18
REMARK    5  A    between atoms: C14_18  and  C15_19
REMARK                            x       y       z     vdW  Elec       q    Type
REMARK                         _______ _______ _______ _____ _____    ______ ____
ROOT
ATOM      1  N2  UNL     1      -1.864  -0.243  -0.443  0.00  0.00    +0.000 NA
ATOM      2  C9  UNL     1      -1.318   0.078   0.803  0.00  0.00    +0.000 C 
ATOM      3  C10 UNL     1       0.157   0.009   0.933  0.00  0.00    +0.000 C 
ATOM      4  C11 UNL     1       0.952  -0.553  -0.170  0.00  0.00    +0.000 C 
ATOM      5  C12 UNL     1       0.105  -1.251  -1.233  0.00  0.00    +0.000 C 
ATOM      6  C13 UNL     1      -1.026  -0.265  -1.577  0.00  0.00    +0.000 C 
ENDROOT
BRANCH   4   7
ATOM      7  N3  UNL     1       2.040  -1.459   0.169  0.00  0.00    +0.000 NA
ATOM      8  H17 UNL     1       1.601  -2.261   0.650  0.00  0.00    +0.000 HD
BRANCH   7   9
ATOM      9  C14 UNL     1       2.971  -0.843   1.066  0.00  0.00    +0.000 C 
BRANCH   9  10
ATOM     10  C15 UNL     1       4.238  -0.387   0.438  0.00  0.00    +0.000 A 
ATOM     11  C16 UNL     1       5.457  -0.972   0.597  0.00  0.00    +0.000 A 
ATOM     12  C17 UNL     1       6.588  -0.432  -0.019  0.00  0.00    +0.000 A 
ATOM     13  C18 UNL     1       7.909  -1.054   0.163  0.00  0.00    +0.000 C 
ATOM     14  C19 UNL     1       8.927  -0.522  -0.794  0.00  0.00    +0.000 C 
ATOM     15  C20 UNL     1       8.870   0.969  -0.891  0.00  0.00    +0.000 C 
ATOM     16  O2  UNL     1       7.579   1.286  -1.427  0.00  0.00    +0.000 OA
ATOM     17  C21 UNL     1       6.476   0.700  -0.792  0.00  0.00    +0.000 A 
ATOM     18  C22 UNL     1       5.214   1.236  -0.910  0.00  0.00    +0.000 A 
ATOM     19  N4  UNL     1       4.139   0.721  -0.325  0.00  0.00    +0.000 NA
ENDBRANCH   9  10
ENDBRANCH   7   9
ENDBRANCH   4   7
BRANCH   1  20
ATOM     20  C8  UNL     1      -3.225  -0.498  -0.617  0.00  0.00    +0.000 C 
BRANCH  20  29
ATOM     21  O1  UNL     1      -5.530   2.456   3.232  0.00  0.00    +0.000 OA
ATOM     22  C1  UNL     1      -6.214   1.815   2.411  0.00  0.00    +0.000 A 
ATOM     23  C2  UNL     1      -7.572   1.663   2.606  0.00  0.00    +0.000 A 
ATOM     24  C3  UNL     1      -8.315   0.942   1.665  0.00  0.00    +0.000 A 
ATOM     25  C4  UNL     1      -7.670   0.399   0.553  0.00  0.00    +0.000 A 
ATOM     26  C5  UNL     1      -6.323   0.591   0.421  0.00  0.00    +0.000 A 
ATOM     27  N1  UNL     1      -5.604   1.267   1.311  0.00  0.00    +0.000 N 
ATOM     28  C6  UNL     1      -4.202   1.177   0.905  0.00  0.00    +0.000 C 
ATOM     29  C7  UNL     1      -4.220   0.586  -0.463  0.00  0.00    +0.000 C 
ATOM     30  N5  UNL     1      -5.598   0.116  -0.596  0.00  0.00    +0.000 N 
ATOM     31  C23 UNL     1      -6.224  -0.596  -1.537  0.00  0.00    +0.000 A 
ATOM     32  O3  UNL     1      -5.616  -1.089  -2.537  0.00  0.00    +0.000 OA
ATOM     33  C24 UNL     1      -7.580  -0.816  -1.446  0.00  0.00    +0.000 A 
ATOM     34  N6  UNL     1      -8.299  -0.313  -0.395  0.00  0.00    +0.000 NA
ENDBRANCH  20  29
ENDBRANCH   1  20
TORSDOF 5
