REMARK  Name = ./3D_structures\o62_MMV1580173_3D.pdb
REMARK  11 active torsions:
REMARK  status: ('A' for Active; 'I' for Inactive)
REMARK    1  A    between atoms: O1_1  and  C1_2
REMARK    2  A    between atoms: O1_1  and  C19_27
REMARK    3  A    between atoms: C2_3  and  O2_4
REMARK    4  A    between atoms: O2_4  and  C3_5
REMARK    5  A    between atoms: C5_7  and  N1_8
REMARK    6  A    between atoms: N1_8  and  C6_9
REMARK    7  A    between atoms: C6_9  and  C7_10
REMARK    8  A    between atoms: C8_11  and  C15_22
REMARK    9  A    between atoms: C10_13  and  N5_21
REMARK   10  A    between atoms: C17_24  and  O3_25
REMARK   11  A    between atoms: O3_25  and  C18_26
REMARK                            x       y       z     vdW  Elec       q    Type
REMARK                         _______ _______ _______ _____ _____    ______ ____
ROOT
ATOM      1  C7  UNL     1      -1.130  -0.801  -0.903  0.00  0.00    +0.000 A 
ATOM      2  C8  UNL     1      -2.326  -1.345  -0.405  0.00  0.00    +0.000 A 
ATOM      3  C9  UNL     1      -3.280  -0.479   0.125  0.00  0.00    +0.000 A 
ATOM      4  C10 UNL     1      -4.480  -0.896   0.640  0.00  0.00    +0.000 A 
ATOM      5  N2  UNL     1      -5.387   0.000   1.154  0.00  0.00    +0.000 NA
ATOM      6  C11 UNL     1      -5.093   1.306   1.151  0.00  0.00    +0.000 A 
ATOM      7  N3  UNL     1      -6.020   2.252   1.679  0.00  0.00    +0.000 N 
ATOM      8  N4  UNL     1      -3.939   1.777   0.663  0.00  0.00    +0.000 NA
ATOM      9  C12 UNL     1      -3.050   0.902   0.160  0.00  0.00    +0.000 A 
ATOM     10  C13 UNL     1      -1.859   1.366  -0.344  0.00  0.00    +0.000 A 
ATOM     11  C14 UNL     1      -0.901   0.539  -0.872  0.00  0.00    +0.000 A 
ATOM     12  C15 UNL     1      -2.577  -2.793  -0.441  0.00  0.00    +0.000 C 
ATOM     13  H8  UNL     1      -6.387   2.107   2.643  0.00  0.00    +0.000 HD
ATOM     14  H9  UNL     1      -6.356   3.088   1.158  0.00  0.00    +0.000 HD
ENDROOT
BRANCH   4  15
ATOM     15  N5  UNL     1      -4.812  -2.267   0.658  0.00  0.00    +0.000 N 
ATOM     16  H12 UNL     1      -4.430  -2.891   1.375  0.00  0.00    +0.000 HD
ATOM     17  H13 UNL     1      -5.469  -2.627  -0.057  0.00  0.00    +0.000 HD
ENDBRANCH   4  15
BRANCH   1  18
ATOM     18  C6  UNL     1      -0.140  -1.774  -1.476  0.00  0.00    +0.000 C 
BRANCH  18  19
ATOM     19  N1  UNL     1       1.032  -1.062  -1.897  0.00  0.00    +0.000 N 
ATOM     20  H5  UNL     1       1.234  -0.966  -2.911  0.00  0.00    +0.000 HD
BRANCH  19  24
ATOM     21  C1  UNL     1       3.686   0.656   0.822  0.00  0.00    +0.000 A 
ATOM     22  C2  UNL     1       2.621  -0.081   1.308  0.00  0.00    +0.000 A 
ATOM     23  C4  UNL     1       1.773  -0.628   0.373  0.00  0.00    +0.000 A 
ATOM     24  C5  UNL     1       1.962  -0.459  -0.978  0.00  0.00    +0.000 A 
ATOM     25  C16 UNL     1       3.031   0.279  -1.420  0.00  0.00    +0.000 A 
ATOM     26  C17 UNL     1       3.924   0.858  -0.523  0.00  0.00    +0.000 A 
BRANCH  21  27
ATOM     27  O1  UNL     1       4.541   1.207   1.768  0.00  0.00    +0.000 OA
ATOM     28  C19 UNL     1       4.286   2.510   2.284  0.00  0.00    +0.000 C 
ENDBRANCH  21  27
BRANCH  22  29
ATOM     29  O2  UNL     1       2.398  -0.273   2.659  0.00  0.00    +0.000 OA
ATOM     30  C3  UNL     1       1.280  -1.043   3.049  0.00  0.00    +0.000 C 
ENDBRANCH  22  29
BRANCH  26  31
ATOM     31  O3  UNL     1       5.014   1.611  -0.970  0.00  0.00    +0.000 OA
ATOM     32  C18 UNL     1       5.181   1.766  -2.366  0.00  0.00    +0.000 C 
ENDBRANCH  26  31
ENDBRANCH  19  24
ENDBRANCH  18  19
ENDBRANCH   1  18
TORSDOF 7
