REMARK  Name = ./3D_structures\o63_MMV1634403_3D.pdb
REMARK  17 active torsions:
REMARK  status: ('A' for Active; 'I' for Inactive)
REMARK    1  A    between atoms: N1_3  and  C27_36
REMARK    2  A    between atoms: N2_8  and  C5_9
REMARK    3  A    between atoms: C5_9  and  C6_10
REMARK    4  A    between atoms: C6_10  and  C7_11
REMARK    5  A    between atoms: C10_14  and  N3_15
REMARK    6  A    between atoms: C13_19  and  C14_20
REMARK    7  A    between atoms: C14_20  and  C15_21
REMARK    8  A    between atoms: N5_27  and  C21_28
REMARK    9  A    between atoms: C21_28  and  C22_29
REMARK   10  A    between atoms: C22_29  and  N6_30
REMARK   11  A    between atoms: N6_30  and  C23_31
REMARK   12  A    between atoms: N6_30  and  C25_34
REMARK   13  A    between atoms: C23_31  and  C24_32
REMARK   14  A    between atoms: C24_32  and  O3_33
REMARK   15  A    between atoms: C25_34  and  C26_35
REMARK   16  A    between atoms: C27_36  and  C28_37
REMARK   17  A    between atoms: C28_37  and  C29_38
REMARK                            x       y       z     vdW  Elec       q    Type
REMARK                         _______ _______ _______ _____ _____    ______ ____
ROOT
ATOM      1  O1  UNL     1       2.179   3.036   0.439  0.00  0.00    +0.000 OA
ATOM      2  C1  UNL     1       1.369   2.218  -0.068  0.00  0.00    +0.000 A 
ATOM      3  N1  UNL     1       0.269   2.693  -0.686  0.00  0.00    +0.000 N 
ATOM      4  C2  UNL     1      -0.595   1.834  -1.225  0.00  0.00    +0.000 A 
ATOM      5  O2  UNL     1      -1.598   2.313  -1.791  0.00  0.00    +0.000 OA
ATOM      6  C3  UNL     1      -0.431   0.455  -1.190  0.00  0.00    +0.000 A 
ATOM      7  C4  UNL     1       0.724   0.038  -0.540  0.00  0.00    +0.000 A 
ATOM      8  N2  UNL     1       1.595   0.901   0.004  0.00  0.00    +0.000 N 
ATOM      9  N4  UNL     1       0.732  -1.278  -0.622  0.00  0.00    +0.000 NA
ATOM     10  C13 UNL     1      -0.378  -1.679  -1.299  0.00  0.00    +0.000 A 
ATOM     11  N5  UNL     1      -1.120  -0.591  -1.660  0.00  0.00    +0.000 N 
ENDROOT
BRANCH   8  12
ATOM     12  C5  UNL     1       2.791   0.439   0.675  0.00  0.00    +0.000 C 
BRANCH  12  13
ATOM     13  C6  UNL     1       3.937   0.335  -0.343  0.00  0.00    +0.000 C 
BRANCH  13  14
ATOM     14  C7  UNL     1       5.174  -0.139   0.325  0.00  0.00    +0.000 A 
ATOM     15  C8  UNL     1       5.445  -1.499   0.407  0.00  0.00    +0.000 A 
ATOM     16  C9  UNL     1       6.584  -1.978   1.021  0.00  0.00    +0.000 A 
ATOM     17  C10 UNL     1       7.496  -1.122   1.575  0.00  0.00    +0.000 A 
ATOM     18  C11 UNL     1       7.235   0.239   1.499  0.00  0.00    +0.000 A 
ATOM     19  C12 UNL     1       6.101   0.712   0.888  0.00  0.00    +0.000 A 
BRANCH  17  20
ATOM     20  N3  UNL     1       8.689  -1.566   2.220  0.00  0.00    +0.000 N 
ATOM     21  H7  UNL     1       8.748  -1.867   3.202  0.00  0.00    +0.000 HD
ATOM     22  H8  UNL     1       9.552  -1.572   1.621  0.00  0.00    +0.000 HD
ENDBRANCH  17  20
ENDBRANCH  13  14
ENDBRANCH  12  13
ENDBRANCH   8  12
BRANCH  10  23
ATOM     23  C14 UNL     1      -0.630  -3.094  -1.606  0.00  0.00    +0.000 C 
BRANCH  23  24
ATOM     24  C15 UNL     1      -1.197  -3.909  -0.531  0.00  0.00    +0.000 A 
ATOM     25  C16 UNL     1      -2.501  -4.332  -0.597  0.00  0.00    +0.000 A 
ATOM     26  C17 UNL     1      -3.099  -5.103   0.383  0.00  0.00    +0.000 A 
ATOM     27  C18 UNL     1      -2.338  -5.462   1.481  0.00  0.00    +0.000 A 
ATOM     28  C19 UNL     1      -1.027  -5.046   1.563  0.00  0.00    +0.000 A 
ATOM     29  C20 UNL     1      -0.442  -4.275   0.575  0.00  0.00    +0.000 A 
ENDBRANCH  23  24
ENDBRANCH  10  23
BRANCH  11  30
ATOM     30  C21 UNL     1      -2.357  -0.598  -2.406  0.00  0.00    +0.000 C 
BRANCH  30  31
ATOM     31  C22 UNL     1      -3.597  -0.762  -1.626  0.00  0.00    +0.000 C 
BRANCH  31  32
ATOM     32  N6  UNL     1      -4.045   0.179  -0.708  0.00  0.00    +0.000 NA
BRANCH  32  33
ATOM     33  C25 UNL     1      -4.292  -0.269   0.617  0.00  0.00    +0.000 C 
ATOM     34  C26 UNL     1      -3.067  -0.678   1.392  0.00  0.00    +0.000 C 
ENDBRANCH  32  33
BRANCH  32  35
ATOM     35  C23 UNL     1      -4.624   1.387  -1.126  0.00  0.00    +0.000 C 
BRANCH  35  36
ATOM     36  C24 UNL     1      -4.962   2.343   0.000  0.00  0.00    +0.000 C 
BRANCH  36  37
ATOM     37  O3  UNL     1      -3.872   2.713   0.740  0.00  0.00    +0.000 OA
ATOM     38  H26 UNL     1      -3.954   3.626   1.135  0.00  0.00    +0.000 HD
ENDBRANCH  36  37
ENDBRANCH  35  36
ENDBRANCH  32  35
ENDBRANCH  31  32
ENDBRANCH  30  31
ENDBRANCH  11  30
BRANCH   3  39
ATOM     39  C27 UNL     1       0.076   4.119  -0.748  0.00  0.00    +0.000 C 
BRANCH  39  40
ATOM     40  C28 UNL     1      -0.673   4.706   0.401  0.00  0.00    +0.000 C 
ATOM     41  C29 UNL     1      -0.755   6.215   0.140  0.00  0.00    +0.000 C 
ENDBRANCH  39  40
ENDBRANCH   3  39
TORSDOF 15
