REMARK  Name = ./3D_structures\o64_MMV1634390_3D.pdb
REMARK  8 active torsions:
REMARK  status: ('A' for Active; 'I' for Inactive)
REMARK    1  A    between atoms: C1_2  and  O2_3
REMARK    2  A    between atoms: O2_3  and  C2_4
REMARK    3  A    between atoms: N1_5  and  C3_6
REMARK    4  A    between atoms: C3_6  and  C4_7
REMARK    5  A    between atoms: C7_10  and  C16_23
REMARK    6  A    between atoms: N4_20  and  C14_21
REMARK    7  A    between atoms: C14_21  and  C15_22
REMARK    8  A    between atoms: C18_25  and  C21_29
REMARK                            x       y       z     vdW  Elec       q    Type
REMARK                         _______ _______ _______ _____ _____    ______ ____
ROOT
ATOM      1  C4  UNL     1      -2.465   0.750   0.455  0.00  0.00    +0.000 A 
ATOM      2  C5  UNL     1      -3.238  -0.372   0.412  0.00  0.00    +0.000 A 
ATOM      3  C6  UNL     1      -2.704  -1.641   0.161  0.00  0.00    +0.000 A 
ATOM      4  C7  UNL     1      -1.374  -1.808  -0.054  0.00  0.00    +0.000 A 
ATOM      5  C8  UNL     1      -0.576  -0.708  -0.019  0.00  0.00    +0.000 A 
ATOM      6  C9  UNL     1       0.788  -0.801  -0.243  0.00  0.00    +0.000 A 
ATOM      7  C10 UNL     1       1.578   0.351  -0.210  0.00  0.00    +0.000 A 
ATOM      8  N2  UNL     1       1.020   1.536   0.035  0.00  0.00    +0.000 NA
ATOM      9  C11 UNL     1      -0.314   1.674   0.260  0.00  0.00    +0.000 A 
ATOM     10  C12 UNL     1      -1.086   0.551   0.228  0.00  0.00    +0.000 A 
ATOM     11  N3  UNL     1       2.970   0.179  -0.449  0.00  0.00    +0.000 N 
ATOM     12  C13 UNL     1       3.843   1.318  -0.431  0.00  0.00    +0.000 C 
ATOM     13  O3  UNL     1       3.300   2.438  -0.196  0.00  0.00    +0.000 OA
ATOM     14  N4  UNL     1       5.233   1.215  -0.660  0.00  0.00    +0.000 N 
ATOM     15  H11 UNL     1       3.385  -0.755  -0.639  0.00  0.00    +0.000 HD
ATOM     16  H12 UNL     1       5.661   0.287  -0.851  0.00  0.00    +0.000 HD
ENDROOT
BRANCH   4  17
ATOM     17  C16 UNL     1      -0.812  -3.133  -0.276  0.00  0.00    +0.000 A 
ATOM     18  C17 UNL     1       0.187  -3.694   0.476  0.00  0.00    +0.000 A 
ATOM     19  C18 UNL     1       0.696  -4.943   0.221  0.00  0.00    +0.000 A 
ATOM     20  N5  UNL     1       0.204  -5.657  -0.803  0.00  0.00    +0.000 NA
ATOM     21  C19 UNL     1      -0.791  -5.139  -1.578  0.00  0.00    +0.000 A 
ATOM     22  C20 UNL     1      -1.298  -3.897  -1.327  0.00  0.00    +0.000 A 
ATOM     23  C21 UNL     1       1.775  -5.535   1.043  0.00  0.00    +0.000 C 
ENDBRANCH   4  17
BRANCH  14  24
ATOM     24  C14 UNL     1       6.056   2.407  -0.627  0.00  0.00    +0.000 C 
ATOM     25  C15 UNL     1       7.501   2.082  -0.894  0.00  0.00    +0.000 C 
ENDBRANCH  14  24
BRANCH   1  26
ATOM     26  C3  UNL     1      -2.982   2.086   0.714  0.00  0.00    +0.000 C 
BRANCH  26  29
ATOM     27  O1  UNL     1      -4.236   4.454   1.222  0.00  0.00    +0.000 OA
ATOM     28  C1  UNL     1      -4.969   3.434   1.187  0.00  0.00    +0.000 C 
ATOM     29  N1  UNL     1      -4.374   2.145   0.924  0.00  0.00    +0.000 N 
ATOM     30  H4  UNL     1      -5.003   1.353   0.906  0.00  0.00    +0.000 HD
BRANCH  28  31
ATOM     31  O2  UNL     1      -6.340   3.548   1.402  0.00  0.00    +0.000 OA
ATOM     32  C2  UNL     1      -6.894   4.842   1.660  0.00  0.00    +0.000 C 
ENDBRANCH  28  31
ENDBRANCH  26  29
ENDBRANCH   1  26
TORSDOF 5
