REMARK  Name = ./3D_structures\o65_MMV1633967_3D.pdb
REMARK  17 active torsions:
REMARK  status: ('A' for Active; 'I' for Inactive)
REMARK    1  A    between atoms: C1_2  and  O2_3
REMARK    2  A    between atoms: O2_3  and  C2_4
REMARK    3  A    between atoms: C2_4  and  C3_5
REMARK    4  A    between atoms: C6_11  and  C27_35
REMARK    5  A    between atoms: C7_12  and  C8_13
REMARK    6  A    between atoms: C15_21  and  N5_23
REMARK    7  A    between atoms: N5_23  and  C17_24
REMARK    8  A    between atoms: C17_24  and  C18_25
REMARK    9  A    between atoms: C17_24  and  C26_34
REMARK   10  A    between atoms: C18_25  and  C19_26
REMARK   11  A    between atoms: C19_26  and  C20_27
REMARK   12  A    between atoms: C19_26  and  C25_33
REMARK   13  A    between atoms: C20_27  and  N6_28
REMARK   14  A    between atoms: N6_28  and  C21_29
REMARK   15  A    between atoms: N6_28  and  C23_31
REMARK   16  A    between atoms: C21_29  and  C22_30
REMARK   17  A    between atoms: C23_31  and  C24_32
REMARK                            x       y       z     vdW  Elec       q    Type
REMARK                         _______ _______ _______ _____ _____    ______ ____
ROOT
ATOM      1  O1  UNL     1      -1.498   4.934  -2.124  0.00  0.00    +0.000 OA
ATOM      2  C1  UNL     1      -2.730   4.919  -2.010  0.00  0.00    +0.000 C 
ATOM      3  N1  UNL     1      -3.397   3.820  -1.461  0.00  0.00    +0.000 N 
ATOM      4  C4  UNL     1      -2.782   2.647  -0.983  0.00  0.00    +0.000 C 
ATOM      5  N2  UNL     1      -3.589   1.660  -0.484  0.00  0.00    +0.000 NA
ATOM      6  C5  UNL     1      -3.141   0.500   0.004  0.00  0.00    +0.000 C 
ATOM      7  N3  UNL     1      -4.016  -0.434   0.483  0.00  0.00    +0.000 NA
ATOM      8  C6  UNL     1      -3.561  -1.587   0.967  0.00  0.00    +0.000 C 
ATOM      9  C7  UNL     1      -2.205  -1.821   0.977  0.00  0.00    +0.000 C 
ATOM     10  N4  UNL     1      -1.314  -0.921   0.513  0.00  0.00    +0.000 NA
ATOM     11  C14 UNL     1      -1.790   0.228   0.032  0.00  0.00    +0.000 C 
ATOM     12  C15 UNL     1      -0.924   1.191  -0.459  0.00  0.00    +0.000 C 
ATOM     13  C16 UNL     1      -1.435   2.387  -0.960  0.00  0.00    +0.000 C 
ATOM     14  H6  UNL     1      -4.464   3.865  -1.389  0.00  0.00    +0.000 HD
ENDROOT
BRANCH   9  15
ATOM     15  C8  UNL     1      -1.729  -3.095   1.508  0.00  0.00    +0.000 A 
ATOM     16  C9  UNL     1      -2.110  -4.257   0.853  0.00  0.00    +0.000 A 
ATOM     17  C10 UNL     1      -1.709  -5.504   1.280  0.00  0.00    +0.000 A 
ATOM     18  C11 UNL     1      -0.908  -5.588   2.389  0.00  0.00    +0.000 A 
ATOM     19  C12 UNL     1      -0.525  -4.421   3.047  0.00  0.00    +0.000 A 
ATOM     20  C13 UNL     1      -0.923  -3.174   2.624  0.00  0.00    +0.000 A 
ENDBRANCH   9  15
BRANCH   8  21
ATOM     21  C27 UNL     1      -4.530  -2.557   1.473  0.00  0.00    +0.000 A 
ATOM     22  C28 UNL     1      -4.486  -2.935   2.800  0.00  0.00    +0.000 A 
ATOM     23  C29 UNL     1      -5.403  -3.848   3.277  0.00  0.00    +0.000 A 
ATOM     24  C30 UNL     1      -6.364  -4.393   2.461  0.00  0.00    +0.000 A 
ATOM     25  C31 UNL     1      -6.417  -4.024   1.140  0.00  0.00    +0.000 A 
ATOM     26  C32 UNL     1      -5.500  -3.112   0.667  0.00  0.00    +0.000 A 
ENDBRANCH   8  21
BRANCH  12  27
ATOM     27  N5  UNL     1       0.459   0.885  -0.438  0.00  0.00    +0.000 N 
ATOM     28  H13 UNL     1       0.750  -0.073  -0.212  0.00  0.00    +0.000 HD
BRANCH  27  29
ATOM     29  C17 UNL     1       1.420   1.887  -0.765  0.00  0.00    +0.000 C 
ATOM     30  C26 UNL     1       1.177   3.041   0.208  0.00  0.00    +0.000 C 
BRANCH  29  31
ATOM     31  C18 UNL     1       2.844   1.501  -0.818  0.00  0.00    +0.000 C 
BRANCH  31  32
ATOM     32  C19 UNL     1       3.556   1.004   0.359  0.00  0.00    +0.000 C 
ATOM     33  C25 UNL     1       2.823   0.069   1.229  0.00  0.00    +0.000 C 
BRANCH  32  34
ATOM     34  C20 UNL     1       5.005   0.660   0.102  0.00  0.00    +0.000 C 
BRANCH  34  35
ATOM     35  N6  UNL     1       5.306  -0.299  -0.859  0.00  0.00    +0.000 NA
BRANCH  35  36
ATOM     36  C21 UNL     1       6.743  -0.451  -0.974  0.00  0.00    +0.000 C 
ATOM     37  C22 UNL     1       7.142  -1.437  -2.018  0.00  0.00    +0.000 C 
ENDBRANCH  35  36
BRANCH  35  38
ATOM     38  C23 UNL     1       4.620  -1.525  -0.931  0.00  0.00    +0.000 C 
ATOM     39  C24 UNL     1       4.847  -2.481   0.215  0.00  0.00    +0.000 C 
ENDBRANCH  35  38
ENDBRANCH  34  35
ENDBRANCH  32  34
ENDBRANCH  31  32
ENDBRANCH  29  31
ENDBRANCH  27  29
ENDBRANCH  12  27
BRANCH   2  40
ATOM     40  O2  UNL     1      -3.453   6.062  -2.457  0.00  0.00    +0.000 OA
BRANCH  40  41
ATOM     41  C2  UNL     1      -2.762   7.159  -3.010  0.00  0.00    +0.000 C 
ATOM     42  C3  UNL     1      -3.825   8.195  -3.361  0.00  0.00    +0.000 C 
ENDBRANCH  40  41
ENDBRANCH   2  40
TORSDOF 12
