REMARK  Name = ./3D_structures\o66_MMV1593534_3D.pdb
REMARK  7 active torsions:
REMARK  status: ('A' for Active; 'I' for Inactive)
REMARK    1  A    between atoms: C1_1  and  C2_2
REMARK    2  A    between atoms: C2_2  and  N1_3
REMARK    3  A    between atoms: N2_6  and  C4_7
REMARK    4  A    between atoms: C6_9  and  C7_10
REMARK    5  A    between atoms: C13_16  and  C15_19
REMARK    6  A    between atoms: C18_23  and  C20_25
REMARK    7  A    between atoms: C20_25  and  O3_27
REMARK                            x       y       z     vdW  Elec       q    Type
REMARK                         _______ _______ _______ _____ _____    ______ ____
ROOT
ATOM      1  C4  UNL     1       1.998  -0.129  -0.234  0.00  0.00    +0.000 A 
ATOM      2  C5  UNL     1       1.122  -1.147   0.075  0.00  0.00    +0.000 A 
ATOM      3  C6  UNL     1      -0.248  -1.028  -0.032  0.00  0.00    +0.000 A 
ATOM      4  C13 UNL     1      -0.773   0.175  -0.472  0.00  0.00    +0.000 A 
ATOM      5  C14 UNL     1       0.141   1.169  -0.771  0.00  0.00    +0.000 A 
ATOM      6  N3  UNL     1       1.459   1.027  -0.659  0.00  0.00    +0.000 NA
ENDROOT
BRANCH   1  10
ATOM      7  N1  UNL     1       5.740   0.500  -0.271  0.00  0.00    +0.000 N 
ATOM      8  C3  UNL     1       4.340   0.710  -0.410  0.00  0.00    +0.000 C 
ATOM      9  O1  UNL     1       3.926   1.827  -0.814  0.00  0.00    +0.000 OA
ATOM     10  N2  UNL     1       3.402  -0.309  -0.105  0.00  0.00    +0.000 N 
ATOM     11  H6  UNL     1       6.131  -0.405   0.059  0.00  0.00    +0.000 HD
ATOM     12  H7  UNL     1       3.754  -1.228   0.228  0.00  0.00    +0.000 HD
BRANCH   7  14
ATOM     13  C1  UNL     1       6.346   2.779   0.289  0.00  0.00    +0.000 C 
ATOM     14  C2  UNL     1       6.646   1.583  -0.601  0.00  0.00    +0.000 C 
ENDBRANCH   7  14
ENDBRANCH   1  10
BRANCH   3  15
ATOM     15  C7  UNL     1      -1.143  -2.105   0.296  0.00  0.00    +0.000 A 
ATOM     16  C8  UNL     1      -2.039  -1.934   1.331  0.00  0.00    +0.000 A 
ATOM     17  C9  UNL     1      -2.922  -2.929   1.693  0.00  0.00    +0.000 A 
ATOM     18  C10 UNL     1      -2.894  -4.122   0.990  0.00  0.00    +0.000 A 
ATOM     19  C11 UNL     1      -2.003  -4.268  -0.025  0.00  0.00    +0.000 A 
ATOM     20  C12 UNL     1      -1.099  -3.274  -0.409  0.00  0.00    +0.000 A 
ENDBRANCH   3  15
BRANCH   4  21
ATOM     21  C15 UNL     1      -2.203   0.399  -0.617  0.00  0.00    +0.000 A 
ATOM     22  C16 UNL     1      -2.983  -0.325  -1.490  0.00  0.00    +0.000 A 
ATOM     23  N4  UNL     1      -4.304  -0.110  -1.619  0.00  0.00    +0.000 NA
ATOM     24  C17 UNL     1      -4.932   0.835  -0.890  0.00  0.00    +0.000 A 
ATOM     25  C18 UNL     1      -4.215   1.594   0.000  0.00  0.00    +0.000 A 
ATOM     26  C19 UNL     1      -2.867   1.372   0.129  0.00  0.00    +0.000 A 
BRANCH  25  27
ATOM     27  C20 UNL     1      -4.930   2.603   0.767  0.00  0.00    +0.000 C 
ATOM     28  O2  UNL     1      -4.260   3.288   1.576  0.00  0.00    +0.000 OA
BRANCH  27  29
ATOM     29  O3  UNL     1      -6.290   2.825   0.636  0.00  0.00    +0.000 OA
ATOM     30  H18 UNL     1      -6.726   3.721   0.896  0.00  0.00    +0.000 HD
ENDBRANCH  27  29
ENDBRANCH  25  27
ENDBRANCH   4  21
TORSDOF 6
