REMARK  Name = ./3D_structures\o67_MMV1582498_3D.pdb
REMARK  5 active torsions:
REMARK  status: ('A' for Active; 'I' for Inactive)
REMARK    1  A    between atoms: C1_1  and  C2_2
REMARK    2  A    between atoms: N1_5  and  C5_6
REMARK    3  A    between atoms: C11_14  and  S1_15
REMARK    4  A    between atoms: S1_15  and  C12_16
REMARK    5  A    between atoms: C12_16  and  C13_17
REMARK                            x       y       z     vdW  Elec       q    Type
REMARK                         _______ _______ _______ _____ _____    ______ ____
ROOT
ATOM      1  C1  UNL     1      -1.775  -5.176   0.621  0.00  0.00    +0.000 C 
ATOM      2  C2  UNL     1      -1.779  -3.697   0.543  0.00  0.00    +0.000 C 
ATOM      3  C3  UNL     1      -2.943  -3.022   0.278  0.00  0.00    +0.000 C 
ATOM      4  C4  UNL     1      -2.914  -1.616   0.210  0.00  0.00    +0.000 C 
ATOM      5  N1  UNL     1      -4.110  -0.927  -0.065  0.00  0.00    +0.000 N 
ATOM      6  N2  UNL     1      -1.743  -0.986   0.409  0.00  0.00    +0.000 NA
ATOM      7  C11 UNL     1      -0.614  -1.657   0.667  0.00  0.00    +0.000 C 
ATOM      8  N5  UNL     1      -0.650  -2.979   0.728  0.00  0.00    +0.000 NA
ATOM      9  H5  UNL     1      -4.982  -1.537  -0.212  0.00  0.00    +0.000 HD
ENDROOT
BRANCH   5  10
ATOM     10  C5  UNL     1      -4.289   0.478  -0.169  0.00  0.00    +0.000 A 
ATOM     11  C6  UNL     1      -3.330   1.425   0.036  0.00  0.00    +0.000 A 
ATOM     12  C7  UNL     1      -3.612   2.781  -0.097  0.00  0.00    +0.000 A 
ATOM     13  C8  UNL     1      -4.868   3.224  -0.439  0.00  0.00    +0.000 A 
ATOM     14  F1  UNL     1      -5.152   4.540  -0.570  0.00  0.00    +0.000 F 
ATOM     15  C9  UNL     1      -5.815   2.252  -0.639  0.00  0.00    +0.000 A 
ATOM     16  C10 UNL     1      -5.556   0.922  -0.513  0.00  0.00    +0.000 A 
ENDBRANCH   5  10
BRANCH   7  17
ATOM     17  S1  UNL     1       0.896  -0.755   0.920  0.00  0.00    +0.000 S 
BRANCH  17  18
ATOM     18  C12 UNL     1       1.722  -0.530  -0.672  0.00  0.00    +0.000 C 
BRANCH  18  19
ATOM     19  C13 UNL     1       3.001   0.226  -0.489  0.00  0.00    +0.000 A 
ATOM     20  N3  UNL     1       3.113   1.565  -0.540  0.00  0.00    +0.000 NA
ATOM     21  C14 UNL     1       4.414   1.885  -0.330  0.00  0.00    +0.000 A 
ATOM     22  C15 UNL     1       5.058   3.093  -0.282  0.00  0.00    +0.000 A 
ATOM     23  C16 UNL     1       6.411   3.114  -0.047  0.00  0.00    +0.000 A 
ATOM     24  C17 UNL     1       7.114   1.923   0.138  0.00  0.00    +0.000 A 
ATOM     25  C18 UNL     1       6.468   0.718   0.089  0.00  0.00    +0.000 A 
ATOM     26  C19 UNL     1       5.102   0.690  -0.147  0.00  0.00    +0.000 A 
ATOM     27  N4  UNL     1       4.209  -0.307  -0.250  0.00  0.00    +0.000 N 
ATOM     28  H16 UNL     1       4.417  -1.322  -0.161  0.00  0.00    +0.000 HD
ENDBRANCH  18  19
ENDBRANCH  17  18
ENDBRANCH   7  17
TORSDOF 4
