REMARK  Name = ./3D_structures\o68_MMV1582494_3D.pdb
REMARK  8 active torsions:
REMARK  status: ('A' for Active; 'I' for Inactive)
REMARK    1  A    between atoms: C1_1  and  C2_2
REMARK    2  A    between atoms: C2_2  and  O1_3
REMARK    3  A    between atoms: C2_2  and  C3_4
REMARK    4  A    between atoms: C3_4  and  N1_5
REMARK    5  A    between atoms: C3_4  and  C4_6
REMARK    6  A    between atoms: N2_8  and  S1_9
REMARK    7  A    between atoms: S1_9  and  C5_12
REMARK    8  A    between atoms: C9_16  and  C11_18
REMARK                            x       y       z     vdW  Elec       q    Type
REMARK                         _______ _______ _______ _____ _____    ______ ____
ROOT
ATOM      1  C5  UNL     1       0.133  -0.360  -0.060  0.00  0.00    +0.000 A 
ATOM      2  C6  UNL     1      -0.140  -1.512  -0.798  0.00  0.00    +0.000 A 
ATOM      3  C7  UNL     1       0.855  -2.327  -1.299  0.00  0.00    +0.000 A 
ATOM      4  C8  UNL     1       2.159  -1.960  -1.041  0.00  0.00    +0.000 A 
ATOM      5  C9  UNL     1       2.434  -0.821  -0.311  0.00  0.00    +0.000 A 
ATOM      6  C10 UNL     1       1.438  -0.003   0.192  0.00  0.00    +0.000 A 
ENDROOT
BRANCH   5   7
ATOM      7  C11 UNL     1       3.833  -0.507  -0.075  0.00  0.00    +0.000 A 
ATOM      8  C12 UNL     1       4.751  -0.865  -1.038  0.00  0.00    +0.000 A 
ATOM      9  C13 UNL     1       6.077  -0.573  -0.808  0.00  0.00    +0.000 A 
ATOM     10  C14 UNL     1       6.460   0.054   0.347  0.00  0.00    +0.000 A 
ATOM     11  N3  UNL     1       7.665   0.441   0.805  0.00  0.00    +0.000 N 
ATOM     12  N4  UNL     1       7.538   1.014   1.990  0.00  0.00    +0.000 NA
ATOM     13  C15 UNL     1       6.253   1.024   2.351  0.00  0.00    +0.000 A 
ATOM     14  C16 UNL     1       5.555   0.424   1.330  0.00  0.00    +0.000 A 
ATOM     15  C17 UNL     1       4.214   0.123   1.086  0.00  0.00    +0.000 A 
ATOM     16  H16 UNL     1       8.558   0.305   0.292  0.00  0.00    +0.000 HD
ENDBRANCH   5   7
BRANCH   1  17
ATOM     17  S1  UNL     1      -1.217   0.608   0.544  0.00  0.00    +0.000 S 
ATOM     18  O3  UNL     1      -1.080   2.004   0.019  0.00  0.00    +0.000 OA
ATOM     19  O4  UNL     1      -1.108   0.693   2.049  0.00  0.00    +0.000 OA
BRANCH  17  22
ATOM     20  C4  UNL     1      -3.730   0.448  -0.633  0.00  0.00    +0.000 C 
ATOM     21  O2  UNL     1      -3.586   1.637  -1.011  0.00  0.00    +0.000 OA
ATOM     22  N2  UNL     1      -2.688  -0.133   0.102  0.00  0.00    +0.000 N 
ATOM     23  H9  UNL     1      -2.828  -1.134   0.416  0.00  0.00    +0.000 HD
BRANCH  20  24
ATOM     24  C3  UNL     1      -4.955  -0.273  -0.967  0.00  0.00    +0.000 C 
BRANCH  24  25
ATOM     25  N1  UNL     1      -4.960  -1.642  -0.493  0.00  0.00    +0.000 NA
ATOM     26  H7  UNL     1      -5.907  -2.068  -0.472  0.00  0.00    +0.000 HD
ATOM     27  H8  UNL     1      -4.235  -2.226  -0.929  0.00  0.00    +0.000 HD
ENDBRANCH  24  25
BRANCH  24  29
ATOM     28  C1  UNL     1      -6.369   0.342   0.991  0.00  0.00    +0.000 C 
ATOM     29  C2  UNL     1      -6.188   0.436  -0.508  0.00  0.00    +0.000 C 
BRANCH  29  30
ATOM     30  O1  UNL     1      -6.170   1.751  -0.965  0.00  0.00    +0.000 OA
ATOM     31  H5  UNL     1      -5.973   2.344  -0.221  0.00  0.00    +0.000 HD
ENDBRANCH  29  30
ENDBRANCH  24  29
ENDBRANCH  20  24
ENDBRANCH  17  22
ENDBRANCH   1  17
TORSDOF 7
