REMARK  Name = ./3D_structures\o69_MMV1582493_3D.pdb
REMARK  7 active torsions:
REMARK  status: ('A' for Active; 'I' for Inactive)
REMARK    1  A    between atoms: C1_1  and  C2_2
REMARK    2  A    between atoms: C2_2  and  N1_3
REMARK    3  A    between atoms: C2_2  and  B1_18
REMARK    4  A    between atoms: C3_4  and  C4_6
REMARK    5  A    between atoms: C9_11  and  C10_12
REMARK    6  A    between atoms: B1_18  and  O2_19
REMARK    7  A    between atoms: B1_18  and  O3_20
REMARK                            x       y       z     vdW  Elec       q    Type
REMARK                         _______ _______ _______ _____ _____    ______ ____
ROOT
ATOM      1  C4  UNL     1      -0.516  -1.309   0.267  0.00  0.00    +0.000 A 
ATOM      2  C5  UNL     1      -0.132  -2.625   0.586  0.00  0.00    +0.000 A 
ATOM      3  C6  UNL     1      -0.987  -3.566   1.078  0.00  0.00    +0.000 A 
ATOM      4  C7  UNL     1      -2.298  -3.181   1.265  0.00  0.00    +0.000 A 
ATOM      5  C8  UNL     1      -2.696  -1.899   0.960  0.00  0.00    +0.000 A 
ATOM      6  C9  UNL     1      -1.815  -0.931   0.452  0.00  0.00    +0.000 A 
ENDROOT
BRANCH   6   7
ATOM      7  C10 UNL     1      -2.370   0.385   0.119  0.00  0.00    +0.000 A 
ATOM      8  C11 UNL     1      -2.513   0.876  -1.149  0.00  0.00    +0.000 A 
ATOM      9  C12 UNL     1      -3.012   2.130  -1.429  0.00  0.00    +0.000 A 
ATOM     10  C13 UNL     1      -3.397   2.955  -0.396  0.00  0.00    +0.000 A 
ATOM     11  C14 UNL     1      -3.262   2.477   0.913  0.00  0.00    +0.000 A 
ATOM     12  C15 UNL     1      -2.761   1.222   1.167  0.00  0.00    +0.000 A 
ENDBRANCH   6   7
BRANCH   1  14
ATOM     13  N1  UNL     1       1.851  -0.432   0.243  0.00  0.00    +0.000 N 
ATOM     14  C3  UNL     1       0.479  -0.375  -0.203  0.00  0.00    +0.000 C 
ATOM     15  O1  UNL     1       0.199   0.515  -1.009  0.00  0.00    +0.000 OA
ATOM     16  H5  UNL     1       2.105  -1.182   0.927  0.00  0.00    +0.000 HD
BRANCH  13  18
ATOM     17  C1  UNL     1       3.851  -0.312  -1.050  0.00  0.00    +0.000 C 
ATOM     18  C2  UNL     1       2.843   0.511  -0.236  0.00  0.00    +0.000 C 
BRANCH  18  19
ATOM     19  B1  UNL     1       3.575   1.272   0.931  0.00  0.00    +0.000 B 
BRANCH  19  20
ATOM     20  O2  UNL     1       3.828   2.710   0.748  0.00  0.00    +0.000 OA
ATOM     21  H15 UNL     1       4.797   2.802   0.532  0.00  0.00    +0.000 HD
ENDBRANCH  19  20
BRANCH  19  22
ATOM     22  O3  UNL     1       4.424   0.489   1.822  0.00  0.00    +0.000 OA
ATOM     23  H16 UNL     1       5.183   0.134   1.269  0.00  0.00    +0.000 HD
ENDBRANCH  19  22
ENDBRANCH  18  19
ENDBRANCH  13  18
ENDBRANCH   1  14
TORSDOF 6
