REMARK  Name = ./3D_structures\o70_MMV000043_3D.pdb
REMARK  15 active torsions:
REMARK  status: ('A' for Active; 'I' for Inactive)
REMARK    1  A    between atoms: C1_1  and  O1_2
REMARK    2  A    between atoms: O1_2  and  C2_3
REMARK    3  A    between atoms: C4_5  and  C5_6
REMARK    4  A    between atoms: C7_8  and  O2_9
REMARK    5  A    between atoms: O2_9  and  C8_10
REMARK    6  A    between atoms: C12_14  and  C14_16
REMARK    7  A    between atoms: C15_20  and  O3_21
REMARK    8  A    between atoms: O3_21  and  C16_22
REMARK    9  A    between atoms: C18_24  and  N1_25
REMARK   10  A    between atoms: N1_25  and  C19_26
REMARK   11  A    between atoms: C19_26  and  C20_27
REMARK   12  A    between atoms: C19_26  and  C21_28
REMARK   13  A    between atoms: C21_28  and  C22_29
REMARK   14  A    between atoms: C22_29  and  C23_30
REMARK   15  A    between atoms: C23_30  and  N2_31
REMARK                            x       y       z     vdW  Elec       q    Type
REMARK                         _______ _______ _______ _____ _____    ______ ____
ROOT
ATOM      1  C2  UNL     1      -0.448   4.169  -0.729  0.00  0.00    +0.000 C 
ATOM      2  C3  UNL     1      -1.744   3.820  -1.019  0.00  0.00    +0.000 C 
ATOM      3  C4  UNL     1      -2.154   2.485  -0.982  0.00  0.00    +0.000 C 
ATOM      4  C5  UNL     1      -3.522   2.107  -1.310  0.00  0.00    +0.000 C 
ATOM      5  C6  UNL     1      -1.241   1.486  -0.649  0.00  0.00    +0.000 A 
ATOM      6  C7  UNL     1      -1.592   0.172  -0.567  0.00  0.00    +0.000 A 
ATOM      7  C15 UNL     1      -0.632  -0.774  -0.199  0.00  0.00    +0.000 A 
ATOM      8  C17 UNL     1       0.666  -0.349   0.080  0.00  0.00    +0.000 A 
ATOM      9  C18 UNL     1       1.063   0.958   0.011  0.00  0.00    +0.000 A 
ATOM     10  C24 UNL     1       0.067   1.886  -0.367  0.00  0.00    +0.000 A 
ATOM     11  N3  UNL     1       0.403   3.188  -0.418  0.00  0.00    +0.000 NA
ENDROOT
BRANCH   1  13
ATOM     12  C1  UNL     1       1.242   5.850  -0.530  0.00  0.00    +0.000 C 
ATOM     13  O1  UNL     1      -0.118   5.529  -0.740  0.00  0.00    +0.000 OA
ENDBRANCH   1  13
BRANCH   7  14
ATOM     14  O3  UNL     1      -0.936  -2.102  -0.112  0.00  0.00    +0.000 OA
ATOM     15  C16 UNL     1      -0.151  -3.175   0.211  0.00  0.00    +0.000 C 
ENDBRANCH   7  14
BRANCH   9  16
ATOM     16  N1  UNL     1       2.375   1.387   0.292  0.00  0.00    +0.000 N 
ATOM     17  H16 UNL     1       2.530   2.429  -0.049  0.00  0.00    +0.000 HD
BRANCH  16  18
ATOM     18  C19 UNL     1       3.505   0.825   0.853  0.00  0.00    +0.000 C 
ATOM     19  C20 UNL     1       4.514   1.959   1.298  0.00  0.00    +0.000 C 
BRANCH  18  20
ATOM     20  C21 UNL     1       4.369  -0.071   0.054  0.00  0.00    +0.000 C 
BRANCH  20  21
ATOM     21  C22 UNL     1       3.897  -1.349  -0.484  0.00  0.00    +0.000 C 
BRANCH  21  22
ATOM     22  C23 UNL     1       5.075  -2.047  -1.189  0.00  0.00    +0.000 C 
BRANCH  22  23
ATOM     23  N2  UNL     1       4.537  -3.321  -1.675  0.00  0.00    +0.000 NA
ATOM     24  H27 UNL     1       3.838  -3.634  -0.937  0.00  0.00    +0.000 HD
ATOM     25  H28 UNL     1       5.329  -4.007  -1.634  0.00  0.00    +0.000 HD
ENDBRANCH  22  23
ENDBRANCH  21  22
ENDBRANCH  20  21
ENDBRANCH  18  20
ENDBRANCH  16  18
ENDBRANCH   9  16
BRANCH   6  26
ATOM     26  O2  UNL     1      -2.872  -0.283  -0.822  0.00  0.00    +0.000 OA
BRANCH  26  27
ATOM     27  C8  UNL     1      -3.659  -0.940   0.141  0.00  0.00    +0.000 A 
ATOM     28  C9  UNL     1      -4.154  -0.332   1.265  0.00  0.00    +0.000 A 
ATOM     29  C10 UNL     1      -4.934  -1.022   2.196  0.00  0.00    +0.000 A 
ATOM     30  C11 UNL     1      -5.217  -2.353   1.984  0.00  0.00    +0.000 A 
ATOM     31  C12 UNL     1      -4.739  -2.996   0.864  0.00  0.00    +0.000 A 
ATOM     32  C13 UNL     1      -3.978  -2.270  -0.016  0.00  0.00    +0.000 A 
BRANCH  31  33
ATOM     33  C14 UNL     1      -5.036  -4.461   0.611  0.00  0.00    +0.000 C 
ATOM     34  F1  UNL     1      -3.887  -5.136   0.281  0.00  0.00    +0.000 F 
ATOM     35  F2  UNL     1      -5.943  -4.550  -0.420  0.00  0.00    +0.000 F 
ATOM     36  F3  UNL     1      -5.596  -4.937   1.751  0.00  0.00    +0.000 F 
ENDBRANCH  31  33
ENDBRANCH  26  27
ENDBRANCH   6  26
TORSDOF 11
