REMARK  Name = ./3D_structures\o71_MMV003137_3D.pdb
REMARK  25 active torsions:
REMARK  status: ('A' for Active; 'I' for Inactive)
REMARK    1  A    between atoms: C1_1  and  C2_2
REMARK    2  A    between atoms: C2_2  and  C3_3
REMARK    3  A    between atoms: C5_7  and  C6_8
REMARK    4  A    between atoms: C7_9  and  O3_10
REMARK    5  A    between atoms: O3_10  and  C8_11
REMARK    6  A    between atoms: C10_13  and  C11_14
REMARK    7  A    between atoms: C10_13  and  O4_15
REMARK    8  A    between atoms: O4_15  and  C12_16
REMARK    9  A    between atoms: C13_17  and  O5_18
REMARK   10  A    between atoms: C14_19  and  C15_20
REMARK   11  A    between atoms: C16_22  and  C17_23
REMARK   12  A    between atoms: C18_24  and  O7_25
REMARK   13  A    between atoms: O7_25  and  C19_26
REMARK   14  A    between atoms: C20_28  and  C21_29
REMARK   15  A    between atoms: C23_31  and  N1_34
REMARK   16  A    between atoms: C24_32  and  O9_33
REMARK   17  A    between atoms: N1_34  and  C25_35
REMARK   18  A    between atoms: N1_34  and  C26_36
REMARK   19  A    between atoms: C27_37  and  C28_38
REMARK   20  A    between atoms: C27_37  and  O10_39
REMARK   21  A    between atoms: C30_41  and  C31_42
REMARK   22  A    between atoms: C33_45  and  C34_46
REMARK   23  A    between atoms: C35_47  and  O12_48
REMARK   24  A    between atoms: C36_49  and  C37_50
REMARK   25  A    between atoms: C36_49  and  O13_51
REMARK                            x       y       z     vdW  Elec       q    Type
REMARK                         _______ _______ _______ _____ _____    ______ ____
ROOT
ATOM      1  C3  UNL     1      -3.098  -2.622   1.576  0.00  0.00    +0.000 C 
ATOM      2  O1  UNL     1      -2.459  -2.398   2.786  0.00  0.00    +0.000 OA
ATOM      3  C4  UNL     1      -1.443  -1.566   3.137  0.00  0.00    +0.000 C 
ATOM      4  O2  UNL     1      -0.464  -2.057   3.743  0.00  0.00    +0.000 OA
ATOM      5  C5  UNL     1      -1.447  -0.128   2.838  0.00  0.00    +0.000 C 
ATOM      6  C6  UNL     1      -2.847   0.466   2.953  0.00  0.00    +0.000 C 
ATOM      7  C7  UNL     1      -0.778   0.258   1.535  0.00  0.00    +0.000 C 
ATOM      8  C16 UNL     1       0.630  -0.259   1.534  0.00  0.00    +0.000 C 
ATOM      9  C17 UNL     1       1.450   0.484   2.558  0.00  0.00    +0.000 C 
ATOM     10  C18 UNL     1       1.320  -0.220   0.210  0.00  0.00    +0.000 C 
ATOM     11  C27 UNL     1       1.395  -1.651  -0.399  0.00  0.00    +0.000 C 
ATOM     12  C28 UNL     1       2.052  -2.513   0.641  0.00  0.00    +0.000 C 
ATOM     13  C29 UNL     1       0.012  -2.099  -0.766  0.00  0.00    +0.000 C 
ATOM     14  C30 UNL     1      -0.085  -3.242  -1.696  0.00  0.00    +0.000 C 
ATOM     15  C31 UNL     1       0.993  -3.332  -2.748  0.00  0.00    +0.000 C 
ATOM     16  C32 UNL     1      -0.258  -4.555  -1.005  0.00  0.00    +0.000 C 
ATOM     17  O11 UNL     1       0.757  -5.151  -0.697  0.00  0.00    +0.000 OA
ATOM     18  C33 UNL     1      -1.548  -5.175  -0.674  0.00  0.00    +0.000 C 
ATOM     19  C34 UNL     1      -1.914  -6.063  -1.873  0.00  0.00    +0.000 C 
ATOM     20  C35 UNL     1      -2.656  -4.201  -0.350  0.00  0.00    +0.000 C 
ATOM     21  C36 UNL     1      -2.912  -4.082   1.134  0.00  0.00    +0.000 C 
ATOM     22  C37 UNL     1      -1.783  -4.664   1.972  0.00  0.00    +0.000 C 
ENDROOT
BRANCH   1  24
ATOM     23  C1  UNL     1      -5.436  -2.686   0.626  0.00  0.00    +0.000 C 
ATOM     24  C2  UNL     1      -4.601  -2.477   1.858  0.00  0.00    +0.000 C 
ENDBRANCH   1  24
BRANCH  11  25
ATOM     25  O10 UNL     1       2.225  -1.550  -1.484  0.00  0.00    +0.000 OA
ATOM     26  H51 UNL     1       3.124  -1.940  -1.344  0.00  0.00    +0.000 HD
ENDBRANCH  11  25
BRANCH  20  27
ATOM     27  O12 UNL     1      -3.803  -4.723  -1.000  0.00  0.00    +0.000 OA
ATOM     28  H63 UNL     1      -3.765  -4.412  -1.938  0.00  0.00    +0.000 HD
ENDBRANCH  20  27
BRANCH  21  29
ATOM     29  O13 UNL     1      -4.033  -4.856   1.428  0.00  0.00    +0.000 OA
ATOM     30  H67 UNL     1      -3.908  -5.480   2.160  0.00  0.00    +0.000 HD
ENDBRANCH  21  29
BRANCH   7  31
ATOM     31  O3  UNL     1      -0.755   1.652   1.494  0.00  0.00    +0.000 OA
BRANCH  31  32
ATOM     32  C8  UNL     1      -1.428   2.188   0.397  0.00  0.00    +0.000 C 
ATOM     33  C9  UNL     1      -2.387   3.228   0.873  0.00  0.00    +0.000 C 
ATOM     34  C10 UNL     1      -2.919   4.105  -0.262  0.00  0.00    +0.000 C 
ATOM     35  C11 UNL     1      -4.451   4.088  -0.260  0.00  0.00    +0.000 C 
ATOM     36  C13 UNL     1      -2.451   3.477  -1.532  0.00  0.00    +0.000 C 
ATOM     37  C14 UNL     1      -0.939   3.442  -1.504  0.00  0.00    +0.000 C 
ATOM     38  C15 UNL     1      -0.467   2.816  -2.796  0.00  0.00    +0.000 C 
ATOM     39  O6  UNL     1      -0.452   2.828  -0.371  0.00  0.00    +0.000 OA
BRANCH  34  40
ATOM     40  O4  UNL     1      -2.449   5.367  -0.025  0.00  0.00    +0.000 OA
ATOM     41  C12 UNL     1      -2.797   6.345  -0.914  0.00  0.00    +0.000 C 
ENDBRANCH  34  40
BRANCH  36  42
ATOM     42  O5  UNL     1      -2.860   4.224  -2.614  0.00  0.00    +0.000 OA
ATOM     43  H22 UNL     1      -3.305   3.726  -3.322  0.00  0.00    +0.000 HD
ENDBRANCH  36  42
ENDBRANCH  31  32
ENDBRANCH   7  31
BRANCH  10  44
ATOM     44  O7  UNL     1       2.658   0.075   0.437  0.00  0.00    +0.000 OA
BRANCH  44  45
ATOM     45  C19 UNL     1       3.167   1.068  -0.372  0.00  0.00    +0.000 C 
ATOM     46  O8  UNL     1       4.115   0.614  -1.265  0.00  0.00    +0.000 OA
ATOM     47  C20 UNL     1       4.516   1.587  -2.170  0.00  0.00    +0.000 C 
ATOM     48  C21 UNL     1       5.654   1.082  -3.024  0.00  0.00    +0.000 C 
ATOM     49  C22 UNL     1       4.754   2.911  -1.540  0.00  0.00    +0.000 C 
ATOM     50  C23 UNL     1       4.746   2.953  -0.064  0.00  0.00    +0.000 C 
ATOM     51  C24 UNL     1       3.548   2.228   0.474  0.00  0.00    +0.000 C 
BRANCH  50  52
ATOM     52  N1  UNL     1       5.890   2.547   0.639  0.00  0.00    +0.000 NA
ATOM     53  C25 UNL     1       6.365   1.233   0.565  0.00  0.00    +0.000 C 
ATOM     54  C26 UNL     1       6.474   3.438   1.570  0.00  0.00    +0.000 C 
ENDBRANCH  50  52
BRANCH  51  55
ATOM     55  O9  UNL     1       2.466   3.131   0.542  0.00  0.00    +0.000 OA
ATOM     56  H41 UNL     1       2.764   3.999   0.874  0.00  0.00    +0.000 HD
ENDBRANCH  51  55
ENDBRANCH  44  45
ENDBRANCH  10  44
TORSDOF 12
