REMARK  Name = ./3D_structures\o72_MMV1581552_3D.pdb
REMARK  5 active torsions:
REMARK  status: ('A' for Active; 'I' for Inactive)
REMARK    1  A    between atoms: O1_1  and  C1_2
REMARK    2  A    between atoms: C6_8  and  C7_9
REMARK    3  A    between atoms: C7_9  and  N1_10
REMARK    4  A    between atoms: N1_10  and  C15_20
REMARK    5  A    between atoms: N2_13  and  C9_14
REMARK                            x       y       z     vdW  Elec       q    Type
REMARK                         _______ _______ _______ _____ _____    ______ ____
ROOT
ATOM      1  N1  UNL     1      -0.103   0.888   1.012  0.00  0.00    +0.000 N 
ATOM      2  C8  UNL     1       1.137   0.305   0.561  0.00  0.00    +0.000 C 
ATOM      3  O2  UNL     1       1.823  -0.336   1.432  0.00  0.00    +0.000 OA
ATOM      4  N2  UNL     1       1.681   0.340  -0.723  0.00  0.00    +0.000 N 
ATOM      5  H7  UNL     1       1.163   0.916  -1.472  0.00  0.00    +0.000 HD
ENDROOT
BRANCH   1   6
ATOM      6  C15 UNL     1      -0.708   1.900   0.272  0.00  0.00    +0.000 A 
ATOM      7  C16 UNL     1      -0.341   3.216   0.264  0.00  0.00    +0.000 A 
ATOM      8  C17 UNL     1      -1.021   4.166  -0.497  0.00  0.00    +0.000 A 
ATOM      9  C18 UNL     1      -2.106   3.779  -1.283  0.00  0.00    +0.000 A 
ATOM     10  F1  UNL     1      -2.771   4.728  -2.005  0.00  0.00    +0.000 F 
ATOM     11  C19 UNL     1      -2.497   2.459  -1.299  0.00  0.00    +0.000 A 
ATOM     12  C20 UNL     1      -1.819   1.536  -0.542  0.00  0.00    +0.000 A 
ENDBRANCH   1   6
BRANCH   4  13
ATOM     13  C9  UNL     1       2.876  -0.284  -1.105  0.00  0.00    +0.000 A 
ATOM     14  C10 UNL     1       4.003  -0.332  -0.341  0.00  0.00    +0.000 A 
ATOM     15  C11 UNL     1       5.107  -1.051  -0.802  0.00  0.00    +0.000 A 
ATOM     16  C12 UNL     1       5.108  -1.720  -2.014  0.00  0.00    +0.000 A 
ATOM     17  C13 UNL     1       3.954  -1.654  -2.774  0.00  0.00    +0.000 A 
ATOM     18  C14 UNL     1       2.861  -0.956  -2.338  0.00  0.00    +0.000 A 
ENDBRANCH   4  13
BRANCH   1  19
ATOM     19  C7  UNL     1      -0.671   0.146   2.147  0.00  0.00    +0.000 C 
BRANCH  19  26
ATOM     20  C1  UNL     1      -1.504  -1.978   1.107  0.00  0.00    +0.000 A 
ATOM     21  C2  UNL     1      -2.546  -2.891   0.972  0.00  0.00    +0.000 A 
ATOM     22  C3  UNL     1      -3.830  -2.631   1.515  0.00  0.00    +0.000 A 
ATOM     23  C4  UNL     1      -4.021  -1.434   2.182  0.00  0.00    +0.000 A 
ATOM     24 BR1  UNL     1      -5.770  -1.120   2.976  0.00  0.00    +0.000 Br
ATOM     25  C5  UNL     1      -3.026  -0.528   2.322  0.00  0.00    +0.000 A 
ATOM     26  C6  UNL     1      -1.715  -0.785   1.777  0.00  0.00    +0.000 A 
BRANCH  20  27
ATOM     27  O1  UNL     1      -0.235  -2.250   0.558  0.00  0.00    +0.000 OA
ATOM     28  H1  UNL     1      -0.159  -3.145   0.042  0.00  0.00    +0.000 HD
ENDBRANCH  20  27
ENDBRANCH  19  26
ENDBRANCH   1  19
TORSDOF 5
