REMARK  Name = ./3D_structures\o73_MMV1581551_3D.pdb
REMARK  1 active torsions:
REMARK  status: ('A' for Active; 'I' for Inactive)
REMARK    1  A    between atoms: C6_10  and  C14_20
REMARK                            x       y       z     vdW  Elec       q    Type
REMARK                         _______ _______ _______ _____ _____    ______ ____
ROOT
ATOM      1  C1  UNL     1      -3.123  -1.869   0.440  0.00  0.00    +0.000 C 
ATOM      2  C2  UNL     1      -2.934  -0.398   0.885  0.00  0.00    +0.000 C 
ATOM      3  N1  UNL     1      -1.555  -0.220   1.240  0.00  0.00    +0.000 N 
ATOM      4  C3  UNL     1      -1.066  -0.967   2.362  0.00  0.00    +0.000 C 
ATOM      5  C4  UNL     1      -1.934  -2.201   2.490  0.00  0.00    +0.000 C 
ATOM      6  N2  UNL     1      -2.198  -2.714   1.173  0.00  0.00    +0.000 NA
ATOM      7  C5  UNL     1      -0.670   0.635   0.546  0.00  0.00    +0.000 A 
ATOM      8  N3  UNL     1       0.383   0.174  -0.157  0.00  0.00    +0.000 NA
ATOM      9  N4  UNL     1       1.209   0.951  -0.822  0.00  0.00    +0.000 N 
ATOM     10  C6  UNL     1       2.313   0.652  -1.577  0.00  0.00    +0.000 A 
ATOM     11  N5  UNL     1       2.763   1.851  -2.017  0.00  0.00    +0.000 NA
ATOM     12  N6  UNL     1       1.984   2.808  -1.558  0.00  0.00    +0.000 NA
ATOM     13  C7  UNL     1       1.007   2.277  -0.810  0.00  0.00    +0.000 A 
ATOM     14  C8  UNL     1      -0.048   2.819  -0.113  0.00  0.00    +0.000 A 
ATOM     15  C9  UNL     1      -0.287   4.177  -0.073  0.00  0.00    +0.000 A 
ATOM     16  C10 UNL     1      -1.345   4.706   0.632  0.00  0.00    +0.000 A 
ATOM     17  C11 UNL     1      -2.190   3.863   1.318  0.00  0.00    +0.000 A 
ATOM     18  C12 UNL     1      -1.981   2.484   1.302  0.00  0.00    +0.000 A 
ATOM     19  C13 UNL     1      -0.907   1.988   0.581  0.00  0.00    +0.000 A 
ATOM     20  H9  UNL     1      -2.614  -3.658   1.224  0.00  0.00    +0.000 HD
ENDROOT
BRANCH  10  21
ATOM     21  C14 UNL     1       2.882  -0.659  -1.853  0.00  0.00    +0.000 A 
ATOM     22  C15 UNL     1       2.354  -1.826  -1.362  0.00  0.00    +0.000 A 
ATOM     23  C16 UNL     1       2.923  -3.062  -1.645  0.00  0.00    +0.000 A 
ATOM     24  C17 UNL     1       4.044  -3.129  -2.437  0.00  0.00    +0.000 A 
ATOM     25  C18 UNL     1       4.580  -1.970  -2.932  0.00  0.00    +0.000 A 
ATOM     26  C19 UNL     1       4.002  -0.733  -2.643  0.00  0.00    +0.000 A 
ENDBRANCH  10  21
TORSDOF 1
