REMARK  Name = ./3D_structures\o74_MMV1580853_3D.pdb
REMARK  7 active torsions:
REMARK  status: ('A' for Active; 'I' for Inactive)
REMARK    1  A    between atoms: C1_2  and  C11_15
REMARK    2  A    between atoms: N1_3  and  C2_4
REMARK    3  A    between atoms: C6_8  and  C8_10
REMARK    4  A    between atoms: C14_18  and  C17_21
REMARK    5  A    between atoms: C20_24  and  C23_27
REMARK    6  A    between atoms: N4_29  and  C24_30
REMARK    7  A    between atoms: C28_34  and  C30_36
REMARK                            x       y       z     vdW  Elec       q    Type
REMARK                         _______ _______ _______ _____ _____    ______ ____
ROOT
ATOM      1  C11 UNL     1       3.536   0.238   0.494  0.00  0.00    +0.000 A 
ATOM      2  C12 UNL     1       2.723   1.257   0.936  0.00  0.00    +0.000 A 
ATOM      3  C13 UNL     1       1.334   1.162   0.792  0.00  0.00    +0.000 A 
ATOM      4  C14 UNL     1       0.737   0.063   0.212  0.00  0.00    +0.000 A 
ATOM      5  C15 UNL     1       1.545  -0.953  -0.229  0.00  0.00    +0.000 A 
ATOM      6  C16 UNL     1       2.916  -0.856  -0.085  0.00  0.00    +0.000 A 
ENDROOT
BRANCH   4   7
ATOM      7  C17 UNL     1      -0.713   0.012   0.085  0.00  0.00    +0.000 A 
ATOM      8  C18 UNL     1      -1.530   0.614   1.025  0.00  0.00    +0.000 A 
ATOM      9  C19 UNL     1      -2.911   0.576   0.908  0.00  0.00    +0.000 A 
ATOM     10  C20 UNL     1      -3.530  -0.062  -0.147  0.00  0.00    +0.000 A 
ATOM     11  C21 UNL     1      -2.735  -0.664  -1.086  0.00  0.00    +0.000 A 
ATOM     12  C22 UNL     1      -1.337  -0.623  -0.965  0.00  0.00    +0.000 A 
BRANCH  10  13
ATOM     13  C23 UNL     1      -5.011  -0.085  -0.234  0.00  0.00    +0.000 C 
ATOM     14  O2  UNL     1      -5.688   0.217   0.781  0.00  0.00    +0.000 OA
ATOM     15  N4  UNL     1      -5.698  -0.435  -1.419  0.00  0.00    +0.000 N 
ATOM     16  H19 UNL     1      -5.074  -0.677  -2.251  0.00  0.00    +0.000 HD
BRANCH  15  17
ATOM     17  C24 UNL     1      -7.084  -0.498  -1.625  0.00  0.00    +0.000 A 
ATOM     18  C25 UNL     1      -7.540  -0.657  -2.941  0.00  0.00    +0.000 A 
ATOM     19  C26 UNL     1      -8.879  -0.738  -3.260  0.00  0.00    +0.000 A 
ATOM     20  C27 UNL     1      -9.839  -0.666  -2.281  0.00  0.00    +0.000 A 
ATOM     21  C28 UNL     1      -9.408  -0.510  -0.987  0.00  0.00    +0.000 A 
ATOM     22  C29 UNL     1      -8.041  -0.428  -0.667  0.00  0.00    +0.000 A 
BRANCH  21  23
ATOM     23  C30 UNL     1     -10.397  -0.426   0.084  0.00  0.00    +0.000 C 
ATOM     24  N5  UNL     1     -11.658  -0.423  -0.091  0.00  0.00    +0.000 NA
ATOM     25  C31 UNL     1     -12.375  -0.332   1.140  0.00  0.00    +0.000 C 
ATOM     26  C32 UNL     1     -11.310  -0.096   2.166  0.00  0.00    +0.000 C 
ATOM     27  N6  UNL     1     -10.068  -0.339   1.468  0.00  0.00    +0.000 N 
ATOM     28  H28 UNL     1      -9.146  -0.423   1.941  0.00  0.00    +0.000 HD
ENDBRANCH  21  23
ENDBRANCH  15  17
ENDBRANCH  10  13
ENDBRANCH   4   7
BRANCH   1  30
ATOM     29  O1  UNL     1       5.627  -0.772   0.365  0.00  0.00    +0.000 OA
ATOM     30  C1  UNL     1       5.004   0.283   0.609  0.00  0.00    +0.000 C 
ATOM     31  N1  UNL     1       5.722   1.423   0.968  0.00  0.00    +0.000 N 
ATOM     32  H1  UNL     1       5.120   2.287   1.159  0.00  0.00    +0.000 HD
BRANCH  31  33
ATOM     33  C2  UNL     1       7.122   1.573   1.103  0.00  0.00    +0.000 A 
ATOM     34  C3  UNL     1       7.639   2.754   1.635  0.00  0.00    +0.000 A 
ATOM     35  C4  UNL     1       8.966   3.019   1.806  0.00  0.00    +0.000 A 
ATOM     36  C5  UNL     1       9.869   2.056   1.427  0.00  0.00    +0.000 A 
ATOM     37  C6  UNL     1       9.442   0.865   0.894  0.00  0.00    +0.000 A 
ATOM     38  C7  UNL     1       8.058   0.638   0.738  0.00  0.00    +0.000 A 
BRANCH  37  39
ATOM     39  C8  UNL     1      10.378  -0.180   0.481  0.00  0.00    +0.000 C 
ATOM     40  N2  UNL     1      11.655  -0.101   0.589  0.00  0.00    +0.000 NA
ATOM     41  C9  UNL     1      12.316  -1.287   0.098  0.00  0.00    +0.000 C 
ATOM     42  C10 UNL     1      11.235  -2.081  -0.568  0.00  0.00    +0.000 C 
ATOM     43  N3  UNL     1      10.024  -1.430  -0.097  0.00  0.00    +0.000 N 
ATOM     44  H10 UNL     1       9.054  -1.807  -0.166  0.00  0.00    +0.000 HD
ENDBRANCH  37  39
ENDBRANCH  31  33
ENDBRANCH   1  30
TORSDOF 7
