REMARK  Name = ./3D_structures\o75_MMV1580841_3D.pdb
REMARK  6 active torsions:
REMARK  status: ('A' for Active; 'I' for Inactive)
REMARK    1  A    between atoms: O1_1  and  B1_2
REMARK    2  A    between atoms: B1_2  and  O2_3
REMARK    3  A    between atoms: B1_2  and  C1_4
REMARK    4  A    between atoms: C1_4  and  N1_5
REMARK    5  A    between atoms: N1_5  and  S1_6
REMARK    6  A    between atoms: S1_6  and  C2_9
REMARK                            x       y       z     vdW  Elec       q    Type
REMARK                         _______ _______ _______ _____ _____    ______ ____
ROOT
ATOM      1  S1  UNL     1       1.312  -0.476  -1.950  0.00  0.00    +0.000 S 
ATOM      2  O3  UNL     1       1.473   0.664  -2.915  0.00  0.00    +0.000 OA
ATOM      3  O4  UNL     1       1.225  -1.788  -2.670  0.00  0.00    +0.000 OA
ENDROOT
BRANCH   1   4
ATOM      4  C2  UNL     1      -0.177  -0.241  -1.080  0.00  0.00    +0.000 A 
ATOM      5  C3  UNL     1      -1.287  -1.027  -0.993  0.00  0.00    +0.000 A 
ATOM      6  C4  UNL     1      -2.323  -0.606  -0.237  0.00  0.00    +0.000 A 
ATOM      7  C5  UNL     1      -3.550  -1.284  -0.030  0.00  0.00    +0.000 A 
ATOM      8 CL1  UNL     1      -3.901  -2.829  -0.760  0.00  0.00    +0.000 Cl
ATOM      9  C6  UNL     1      -4.509  -0.731   0.766  0.00  0.00    +0.000 A 
ATOM     10  C7  UNL     1      -4.391   0.466   1.408  0.00  0.00    +0.000 A 
ATOM     11  C8  UNL     1      -3.197   1.144   1.217  0.00  0.00    +0.000 A 
ATOM     12 CL2  UNL     1      -2.941   2.682   1.990  0.00  0.00    +0.000 Cl
ATOM     13  C9  UNL     1      -2.202   0.586   0.401  0.00  0.00    +0.000 A 
ATOM     14  S2  UNL     1      -0.584   1.161  -0.059  0.00  0.00    +0.000 S 
ENDBRANCH   1   4
BRANCH   1  15
ATOM     15  N1  UNL     1       2.687  -0.512  -0.939  0.00  0.00    +0.000 NA
ATOM     16  H5  UNL     1       2.774  -1.341  -0.347  0.00  0.00    +0.000 HD
BRANCH  15  17
ATOM     17  C1  UNL     1       2.844   0.746  -0.233  0.00  0.00    +0.000 C 
BRANCH  17  18
ATOM     18  B1  UNL     1       4.112   0.730   0.707  0.00  0.00    +0.000 B 
BRANCH  18  19
ATOM     19  O1  UNL     1       4.592   2.041   1.196  0.00  0.00    +0.000 OA
ATOM     20  H1  UNL     1       5.524   2.169   0.876  0.00  0.00    +0.000 HD
ENDBRANCH  18  19
BRANCH  18  21
ATOM     21  O2  UNL     1       4.999  -0.446   0.762  0.00  0.00    +0.000 OA
ATOM     22  H2  UNL     1       4.431  -1.230   0.958  0.00  0.00    +0.000 HD
ENDBRANCH  18  21
ENDBRANCH  17  18
ENDBRANCH  15  17
ENDBRANCH   1  15
TORSDOF 6
