REMARK  Name = ./3D_structures\o76_MMV1579878_3D.pdb
REMARK  4 active torsions:
REMARK  status: ('A' for Active; 'I' for Inactive)
REMARK    1  A    between atoms: O1_1  and  C1_2
REMARK    2  A    between atoms: C1_2  and  C2_4
REMARK    3  A    between atoms: C7_9  and  S1_10
REMARK    4  A    between atoms: S1_10  and  C8_11
REMARK                            x       y       z     vdW  Elec       q    Type
REMARK                         _______ _______ _______ _____ _____    ______ ____
ROOT
ATOM      1  C8  UNL     1       0.205  -0.666  -0.740  0.00  0.00    +0.000 C 
ATOM      2  N1  UNL     1      -0.674  -1.259  -1.523  0.00  0.00    +0.000 NA
ATOM      3  C9  UNL     1      -0.389  -1.827  -2.676  0.00  0.00    +0.000 C 
ATOM      4  N2  UNL     1       0.898  -1.794  -3.073  0.00  0.00    +0.000 NA
ATOM      5  C10 UNL     1       1.830  -1.202  -2.311  0.00  0.00    +0.000 A 
ATOM      6  S2  UNL     1       3.573  -0.972  -2.507  0.00  0.00    +0.000 S 
ATOM      7  C11 UNL     1       3.861  -0.100  -0.998  0.00  0.00    +0.000 A 
ATOM      8  C12 UNL     1       4.929   0.544  -0.187  0.00  0.00    +0.000 C 
ATOM      9  C13 UNL     1       4.291   0.570   1.178  0.00  0.00    +0.000 C 
ATOM     10  C14 UNL     1       2.843   0.712   0.866  0.00  0.00    +0.000 C 
ATOM     11  C15 UNL     1       2.637  -0.042  -0.453  0.00  0.00    +0.000 A 
ATOM     12  C16 UNL     1       1.577  -0.589  -1.088  0.00  0.00    +0.000 A 
ENDROOT
BRANCH   1  13
ATOM     13  S1  UNL     1      -0.375   0.048   0.787  0.00  0.00    +0.000 S 
BRANCH  13  19
ATOM     14  C2  UNL     1      -3.065   0.722   0.486  0.00  0.00    +0.000 A 
ATOM     15  C3  UNL     1      -4.415   0.530   0.625  0.00  0.00    +0.000 A 
ATOM     16  C4  UNL     1      -4.900  -0.606   1.257  0.00  0.00    +0.000 A 
ATOM     17  C5  UNL     1      -3.996  -1.529   1.738  0.00  0.00    +0.000 A 
ATOM     18  C6  UNL     1      -2.640  -1.316   1.588  0.00  0.00    +0.000 A 
ATOM     19  C7  UNL     1      -2.133  -0.195   0.964  0.00  0.00    +0.000 A 
BRANCH  14  20
ATOM     20  C1  UNL     1      -2.545   1.900  -0.170  0.00  0.00    +0.000 C 
ATOM     21  O2  UNL     1      -1.322   2.130  -0.326  0.00  0.00    +0.000 OA
BRANCH  20  22
ATOM     22  O1  UNL     1      -3.425   2.852  -0.667  0.00  0.00    +0.000 OA
ATOM     23  H1  UNL     1      -3.138   3.819  -0.778  0.00  0.00    +0.000 HD
ENDBRANCH  20  22
ENDBRANCH  14  20
ENDBRANCH  13  19
ENDBRANCH   1  13
TORSDOF 4
