REMARK  Name = ./3D_structures\o77_MMV1579845_3D.pdb
REMARK  3 active torsions:
REMARK  status: ('A' for Active; 'I' for Inactive)
REMARK    1  A    between atoms: C1_2  and  C13_15
REMARK    2  A    between atoms: N1_3  and  C2_4
REMARK    3  A    between atoms: C2_4  and  C3_5
REMARK                            x       y       z     vdW  Elec       q    Type
REMARK                         _______ _______ _______ _____ _____    ______ ____
ROOT
ATOM      1  C2  UNL     1       0.037   1.068  -0.874  0.00  0.00    +0.000 C 
ENDROOT
BRANCH   1   2
ATOM      2  C3  UNL     1      -0.909   0.078  -0.376  0.00  0.00    +0.000 A 
ATOM      3  C4  UNL     1      -0.525  -1.188  -0.030  0.00  0.00    +0.000 A 
ATOM      4  C5  UNL     1      -1.473  -2.112   0.426  0.00  0.00    +0.000 A 
ATOM      5  C6  UNL     1      -2.798  -1.774   0.536  0.00  0.00    +0.000 A 
ATOM      6  C7  UNL     1      -3.185  -0.502   0.188  0.00  0.00    +0.000 A 
ATOM      7  C8  UNL     1      -4.515  -0.156   0.295  0.00  0.00    +0.000 A 
ATOM      8  C9  UNL     1      -4.949   1.108  -0.043  0.00  0.00    +0.000 A 
ATOM      9  C10 UNL     1      -4.010   2.028  -0.495  0.00  0.00    +0.000 A 
ATOM     10  C11 UNL     1      -2.694   1.655  -0.592  0.00  0.00    +0.000 A 
ATOM     11  C12 UNL     1      -2.241   0.406  -0.262  0.00  0.00    +0.000 A 
ENDBRANCH   1   2
BRANCH   1  14
ATOM     12  O1  UNL     1       1.634   0.430   1.341  0.00  0.00    +0.000 OA
ATOM     13  C1  UNL     1       2.194   0.330   0.203  0.00  0.00    +0.000 C 
ATOM     14  N1  UNL     1       1.415   0.649  -0.925  0.00  0.00    +0.000 N 
ATOM     15  H1  UNL     1       1.922   0.559  -1.855  0.00  0.00    +0.000 HD
BRANCH  13  16
ATOM     16  C13 UNL     1       3.568  -0.095   0.129  0.00  0.00    +0.000 A 
ATOM     17  C14 UNL     1       4.480  -0.316  -0.837  0.00  0.00    +0.000 A 
ATOM     18  C15 UNL     1       5.709  -0.719  -0.559  0.00  0.00    +0.000 A 
ATOM     19  C16 UNL     1       6.103  -0.929   0.755  0.00  0.00    +0.000 A 
ATOM     20  S1  UNL     1       4.552  -0.503   1.656  0.00  0.00    +0.000 S 
ENDBRANCH  13  16
ENDBRANCH   1  14
TORSDOF 3
