REMARK  Name = ./3D_structures\o78_MMV1579787_3D.pdb
REMARK  9 active torsions:
REMARK  status: ('A' for Active; 'I' for Inactive)
REMARK    1  A    between atoms: O1_1  and  P1_2
REMARK    2  A    between atoms: P1_2  and  O3_4
REMARK    3  A    between atoms: P1_2  and  C1_5
REMARK    4  A    between atoms: C1_5  and  C2_6
REMARK    5  A    between atoms: N1_8  and  C3_9
REMARK    6  A    between atoms: C3_9  and  C4_10
REMARK    7  A    between atoms: C4_10  and  C5_11
REMARK    8  A    between atoms: C9_15  and  O5_16
REMARK    9  A    between atoms: O5_16  and  C10_17
REMARK                            x       y       z     vdW  Elec       q    Type
REMARK                         _______ _______ _______ _____ _____    ______ ____
ROOT
ATOM      1  C4  UNL     1       0.997   1.122   1.268  0.00  0.00    +0.000 C 
ENDROOT
BRANCH   1   2
ATOM      2  C5  UNL     1       0.045   0.074   0.878  0.00  0.00    +0.000 A 
ATOM      3  C6  UNL     1       0.208  -1.234   1.258  0.00  0.00    +0.000 A 
ATOM      4  C7  UNL     1      -0.704  -2.207   0.863  0.00  0.00    +0.000 A 
ATOM      5  C8  UNL     1      -1.798  -1.837   0.069  0.00  0.00    +0.000 A 
ATOM      6  C9  UNL     1      -1.967  -0.532  -0.315  0.00  0.00    +0.000 A 
ATOM      7  C16 UNL     1      -1.057   0.411   0.085  0.00  0.00    +0.000 A 
BRANCH   6   8
ATOM      8  O5  UNL     1      -3.034  -0.162  -1.091  0.00  0.00    +0.000 OA
BRANCH   8   9
ATOM      9  C10 UNL     1      -4.231   0.248  -0.500  0.00  0.00    +0.000 A 
ATOM     10  C11 UNL     1      -5.311   0.624  -1.264  0.00  0.00    +0.000 A 
ATOM     11  C12 UNL     1      -6.494   1.030  -0.695  0.00  0.00    +0.000 A 
ATOM     12  C13 UNL     1      -6.584   1.055   0.686  0.00  0.00    +0.000 A 
ATOM     13  C14 UNL     1      -5.539   0.690   1.492  0.00  0.00    +0.000 A 
ATOM     14  C15 UNL     1      -4.370   0.290   0.868  0.00  0.00    +0.000 A 
ENDBRANCH   8   9
ENDBRANCH   6   8
ENDBRANCH   1   2
BRANCH   1  15
ATOM     15  C3  UNL     1       2.035   1.347   0.232  0.00  0.00    +0.000 C 
BRANCH  15  18
ATOM     16  C2  UNL     1       3.884   0.194  -1.023  0.00  0.00    +0.000 C 
ATOM     17  O4  UNL     1       4.149   1.234  -1.662  0.00  0.00    +0.000 OA
ATOM     18  N1  UNL     1       2.840   0.210  -0.072  0.00  0.00    +0.000 N 
ATOM     19  H5  UNL     1       2.678  -0.700   0.424  0.00  0.00    +0.000 HD
BRANCH  16  20
ATOM     20  C1  UNL     1       4.673  -1.029  -1.279  0.00  0.00    +0.000 C 
BRANCH  20  21
ATOM     21  P1  UNL     1       6.076  -1.004  -0.111  0.00  0.00    +0.000 P 
ATOM     22  O2  UNL     1       7.040  -2.126  -0.386  0.00  0.00    +0.000 OA
BRANCH  21  23
ATOM     23  O1  UNL     1       6.901   0.455  -0.334  0.00  0.00    +0.000 OA
ATOM     24  H1  UNL     1       6.320   1.245  -0.203  0.00  0.00    +0.000 HD
ENDBRANCH  21  23
BRANCH  21  25
ATOM     25  O3  UNL     1       5.496  -1.116   1.488  0.00  0.00    +0.000 OA
ATOM     26  H2  UNL     1       4.993  -0.328   1.745  0.00  0.00    +0.000 HD
ENDBRANCH  21  25
ENDBRANCH  20  21
ENDBRANCH  16  20
ENDBRANCH  15  18
ENDBRANCH   1  15
TORSDOF 9
