REMARK  Name = ./3D_structures\o79_MMV1579786_3D.pdb
REMARK  7 active torsions:
REMARK  status: ('A' for Active; 'I' for Inactive)
REMARK    1  A    between atoms: N1_1  and  C1_2
REMARK    2  A    between atoms: C1_2  and  C2_3
REMARK    3  A    between atoms: C2_3  and  C3_4
REMARK    4  A    between atoms: C3_4  and  C4_5
REMARK    5  A    between atoms: C5_6  and  C10_11
REMARK    6  A    between atoms: C13_17  and  N4_19
REMARK    7  A    between atoms: N4_19  and  O2_20
REMARK                            x       y       z     vdW  Elec       q    Type
REMARK                         _______ _______ _______ _____ _____    ______ ____
ROOT
ATOM      1  C10 UNL     1       0.503  -0.905   0.058  0.00  0.00    +0.000 C 
ATOM      2  O1  UNL     1       0.863  -1.596  -0.968  0.00  0.00    +0.000 OA
ATOM      3  N2  UNL     1       1.392   0.111   0.420  0.00  0.00    +0.000 N 
ATOM      4  C11 UNL     1       2.597   0.411  -0.250  0.00  0.00    +0.000 A 
ATOM      5  N3  UNL     1       3.548   1.333   0.096  0.00  0.00    +0.000 NA
ATOM      6  C12 UNL     1       4.554   1.477  -0.619  0.00  0.00    +0.000 A 
ATOM      7  C13 UNL     1       4.805   0.764  -1.779  0.00  0.00    +0.000 A 
ATOM      8  S1  UNL     1       3.251  -0.283  -1.746  0.00  0.00    +0.000 S 
ATOM      9  H13 UNL     1       1.164   0.710   1.242  0.00  0.00    +0.000 HD
ENDROOT
BRANCH   1  11
ATOM     10  C4  UNL     1      -1.541  -0.434   1.354  0.00  0.00    +0.000 A 
ATOM     11  C5  UNL     1      -0.726  -1.288   0.679  0.00  0.00    +0.000 A 
ATOM     12  C6  UNL     1      -1.006  -2.656   0.702  0.00  0.00    +0.000 A 
ATOM     13  C7  UNL     1      -2.091  -3.192   1.394  0.00  0.00    +0.000 A 
ATOM     14  C8  UNL     1      -2.903  -2.296   2.076  0.00  0.00    +0.000 A 
ATOM     15  C9  UNL     1      -2.626  -0.937   2.056  0.00  0.00    +0.000 A 
BRANCH  10  16
ATOM     16  C3  UNL     1      -1.446   1.009   1.248  0.00  0.00    +0.000 C 
BRANCH  16  17
ATOM     17  C2  UNL     1      -2.745   1.647   0.754  0.00  0.00    +0.000 C 
BRANCH  17  18
ATOM     18  C1  UNL     1      -3.210   1.159  -0.581  0.00  0.00    +0.000 C 
BRANCH  18  19
ATOM     19  N1  UNL     1      -3.435  -0.254  -0.680  0.00  0.00    +0.000 NA
ATOM     20  H1  UNL     1      -4.424  -0.512  -0.422  0.00  0.00    +0.000 HD
ATOM     21  H2  UNL     1      -3.210  -0.612  -1.648  0.00  0.00    +0.000 HD
ENDBRANCH  18  19
ENDBRANCH  17  18
ENDBRANCH  16  17
ENDBRANCH  10  16
ENDBRANCH   1  11
BRANCH   7  22
ATOM     22  N4  UNL     1       5.788   0.691  -2.725  0.00  0.00    +0.000 N 
ATOM     23  O3  UNL     1       5.656  -0.018  -3.735  0.00  0.00    +0.000 OA
BRANCH  22  24
ATOM     24  O2  UNL     1       6.960   1.402  -2.603  0.00  0.00    +0.000 OA
ATOM     25  H15 UNL     1       6.938   2.394  -2.340  0.00  0.00    +0.000 HD
ENDBRANCH  22  24
ENDBRANCH   7  22
TORSDOF 7
