REMARK  Name = ./3D_structures\o7_MMV1645051_3D.pdb
REMARK  2 active torsions:
REMARK  status: ('A' for Active; 'I' for Inactive)
REMARK    1  A    between atoms: C4_5  and  C5_7
REMARK    2  A    between atoms: C6_8  and  N1_10
REMARK                            x       y       z     vdW  Elec       q    Type
REMARK                         _______ _______ _______ _____ _____    ______ ____
ROOT
ATOM      1 BR1  UNL     1      -3.690   2.040   0.160  0.00  0.00    +0.000 Br
ATOM      2  C1  UNL     1      -2.393   0.651   0.057  0.00  0.00    +0.000 A 
ATOM      3  C2  UNL     1      -2.560  -0.699   0.144  0.00  0.00    +0.000 A 
ATOM      4  C3  UNL     1      -1.329  -1.298   0.009  0.00  0.00    +0.000 A 
ATOM      5  C4  UNL     1      -0.443  -0.249  -0.160  0.00  0.00    +0.000 A 
ATOM      6  O1  UNL     1      -1.120   0.885  -0.123  0.00  0.00    +0.000 OA
ENDROOT
BRANCH   5   7
ATOM      7  C5  UNL     1       1.014  -0.334  -0.355  0.00  0.00    +0.000 C 
ATOM      8  C6  UNL     1       1.817   0.481   0.335  0.00  0.00    +0.000 C 
ATOM      9 BR2  UNL     1       0.946   1.695   1.547  0.00  0.00    +0.000 Br
BRANCH   8  10
ATOM     10  N1  UNL     1       3.230   0.479   0.206  0.00  0.00    +0.000 N 
ATOM     11  O2  UNL     1       3.817  -0.122  -0.879  0.00  0.00    +0.000 OA
ATOM     12  O3  UNL     1       3.883   1.028   1.112  0.00  0.00    +0.000 OA
ENDBRANCH   8  10
ENDBRANCH   5   7
TORSDOF 2
