REMARK  Name = ./3D_structures\o80_MMV1579784_3D.pdb
REMARK  6 active torsions:
REMARK  status: ('A' for Active; 'I' for Inactive)
REMARK    1  A    between atoms: O1_1  and  C1_2
REMARK    2  A    between atoms: C1_2  and  C2_4
REMARK    3  A    between atoms: C7_9  and  N1_10
REMARK    4  A    between atoms: C8_11  and  C9_13
REMARK    5  A    between atoms: C13_17  and  O4_18
REMARK    6  A    between atoms: O4_18  and  C14_19
REMARK                            x       y       z     vdW  Elec       q    Type
REMARK                         _______ _______ _______ _____ _____    ______ ____
ROOT
ATOM      1  N1  UNL     1      -2.586   0.017   0.024  0.00  0.00    +0.000 N 
ATOM      2  C8  UNL     1      -1.429   0.716  -0.333  0.00  0.00    +0.000 C 
ATOM      3  O3  UNL     1      -1.483   1.802  -0.938  0.00  0.00    +0.000 OA
ATOM      4  H6  UNL     1      -2.395  -0.904   0.524  0.00  0.00    +0.000 HD
ENDROOT
BRANCH   1  10
ATOM      5  C2  UNL     1      -4.990  -0.294   0.236  0.00  0.00    +0.000 A 
ATOM      6  C3  UNL     1      -6.305   0.132  -0.070  0.00  0.00    +0.000 A 
ATOM      7  C4  UNL     1      -6.559   1.227  -0.816  0.00  0.00    +0.000 A 
ATOM      8  C5  UNL     1      -5.504   1.951  -1.296  0.00  0.00    +0.000 A 
ATOM      9  C6  UNL     1      -4.222   1.536  -0.998  0.00  0.00    +0.000 A 
ATOM     10  C7  UNL     1      -3.903   0.432  -0.245  0.00  0.00    +0.000 A 
BRANCH   5  11
ATOM     11  C1  UNL     1      -4.871  -1.475   1.060  0.00  0.00    +0.000 C 
ATOM     12  O2  UNL     1      -3.816  -1.989   1.446  0.00  0.00    +0.000 OA
BRANCH  11  13
ATOM     13  O1  UNL     1      -6.034  -2.140   1.491  0.00  0.00    +0.000 OA
ATOM     14  H1  UNL     1      -6.005  -3.023   1.979  0.00  0.00    +0.000 HD
ENDBRANCH  11  13
ENDBRANCH   5  11
ENDBRANCH   1  10
BRANCH   2  15
ATOM     15  C9  UNL     1      -0.080   0.214  -0.017  0.00  0.00    +0.000 A 
ATOM     16  C10 UNL     1       0.101  -0.814   0.863  0.00  0.00    +0.000 A 
ATOM     17  C11 UNL     1       1.396  -1.252   1.120  0.00  0.00    +0.000 A 
ATOM     18  C12 UNL     1       2.475  -0.676   0.511  0.00  0.00    +0.000 A 
ATOM     19  C13 UNL     1       2.313   0.356  -0.375  0.00  0.00    +0.000 A 
ATOM     20  C20 UNL     1       1.024   0.775  -0.616  0.00  0.00    +0.000 A 
BRANCH  19  21
ATOM     21  O4  UNL     1       3.404   0.938  -0.990  0.00  0.00    +0.000 OA
BRANCH  21  22
ATOM     22  C14 UNL     1       4.677   0.478  -0.712  0.00  0.00    +0.000 A 
ATOM     23  C15 UNL     1       5.254  -0.541  -1.458  0.00  0.00    +0.000 A 
ATOM     24  C16 UNL     1       6.531  -1.004  -1.181  0.00  0.00    +0.000 A 
ATOM     25  C17 UNL     1       7.249  -0.451  -0.150  0.00  0.00    +0.000 A 
ATOM     26  C18 UNL     1       6.707   0.560   0.609  0.00  0.00    +0.000 A 
ATOM     27  C19 UNL     1       5.438   1.004   0.316  0.00  0.00    +0.000 A 
ENDBRANCH  21  22
ENDBRANCH  19  21
ENDBRANCH   2  15
TORSDOF 6
