REMARK  Name = ./3D_structures\o8_MMV1634491_3D.pdb
REMARK  4 active torsions:
REMARK  status: ('A' for Active; 'I' for Inactive)
REMARK    1  A    between atoms: C2_3  and  C7_9
REMARK    2  A    between atoms: C8_10  and  N1_11
REMARK    3  A    between atoms: C8_10  and  C12_16
REMARK    4  A    between atoms: C12_16  and  C13_18
REMARK                            x       y       z     vdW  Elec       q    Type
REMARK                         _______ _______ _______ _____ _____    ______ ____
ROOT
ATOM      1  C7  UNL     1      -0.262  -0.472   0.414  0.00  0.00    +0.000 C 
ATOM      2  C8  UNL     1       0.236   0.673   0.059  0.00  0.00    +0.000 C 
ENDROOT
BRANCH   1   5
ATOM      3 CL1  UNL     1      -2.456   0.131  -1.697  0.00  0.00    +0.000 Cl
ATOM      4  C1  UNL     1      -2.702  -0.447  -0.062  0.00  0.00    +0.000 A 
ATOM      5  C2  UNL     1      -1.629  -0.706   0.798  0.00  0.00    +0.000 A 
ATOM      6  C3  UNL     1      -1.880  -1.203   2.059  0.00  0.00    +0.000 A 
ATOM      7  C4  UNL     1      -3.188  -1.449   2.490  0.00  0.00    +0.000 A 
ATOM      8  C5  UNL     1      -4.242  -1.196   1.653  0.00  0.00    +0.000 A 
ATOM      9  C6  UNL     1      -3.981  -0.698   0.387  0.00  0.00    +0.000 A 
ATOM     10 CL2  UNL     1      -5.904  -1.499   2.179  0.00  0.00    +0.000 Cl
ENDBRANCH   1   5
BRANCH   2  11
ATOM     11  N1  UNL     1      -0.639   1.832   0.069  0.00  0.00    +0.000 N 
ATOM     12  C9  UNL     1      -0.448   2.890  -0.708  0.00  0.00    +0.000 A 
ATOM     13  N2  UNL     1      -1.325   3.835  -0.371  0.00  0.00    +0.000 NA
ATOM     14  C10 UNL     1      -2.079   3.398   0.614  0.00  0.00    +0.000 A 
ATOM     15  C11 UNL     1      -1.639   2.104   0.904  0.00  0.00    +0.000 A 
ENDBRANCH   2  11
BRANCH   2  16
ATOM     16  C12 UNL     1       1.596   0.854  -0.414  0.00  0.00    +0.000 C 
ATOM     17  O1  UNL     1       1.959   2.083  -0.576  0.00  0.00    +0.000 OA
BRANCH  16  18
ATOM     18  C13 UNL     1       2.580  -0.148  -0.720  0.00  0.00    +0.000 A 
ATOM     19  C14 UNL     1       3.927   0.266  -0.756  0.00  0.00    +0.000 A 
ATOM     20  C15 UNL     1       4.906  -0.596  -1.123  0.00  0.00    +0.000 A 
ATOM     21  C16 UNL     1       4.646  -1.912  -1.478  0.00  0.00    +0.000 A 
ATOM     22 CL3  UNL     1       5.896  -3.041  -1.953  0.00  0.00    +0.000 Cl
ATOM     23  C17 UNL     1       3.346  -2.353  -1.458  0.00  0.00    +0.000 A 
ATOM     24  C18 UNL     1       2.344  -1.450  -1.077  0.00  0.00    +0.000 A 
ENDBRANCH  16  18
ENDBRANCH   2  16
TORSDOF 4
