REMARK  Name = ./3D_structures\o9_MMV002731_3D.pdb
REMARK  3 active torsions:
REMARK  status: ('A' for Active; 'I' for Inactive)
REMARK    1  A    between atoms: N1_3  and  O2_4
REMARK    2  A    between atoms: C2_5  and  C7_10
REMARK    3  A    between atoms: C4_7  and  C6_9
REMARK                            x       y       z     vdW  Elec       q    Type
REMARK                         _______ _______ _______ _____ _____    ______ ____
ROOT
ATOM      1  O1  UNL     1       3.336  -2.852  -0.277  0.00  0.00    +0.000 OA
ATOM      2  C1  UNL     1       2.677  -1.793  -0.110  0.00  0.00    +0.000 A 
ATOM      3  N1  UNL     1       1.333  -1.755  -0.135  0.00  0.00    +0.000 N 
ATOM      4  C2  UNL     1       0.607  -0.637   0.041  0.00  0.00    +0.000 A 
ATOM      5  C3  UNL     1       1.337   0.525   0.259  0.00  0.00    +0.000 A 
ATOM      6  C4  UNL     1       2.707   0.555   0.297  0.00  0.00    +0.000 A 
ATOM      7  C5  UNL     1       3.397  -0.626   0.109  0.00  0.00    +0.000 A 
ATOM      8  C6  UNL     1       3.496   1.785   0.528  0.00  0.00    +0.000 C 
ENDROOT
BRANCH   4   9
ATOM      9  C7  UNL     1      -0.858  -0.668   0.001  0.00  0.00    +0.000 C 
ATOM     10  C8  UNL     1      -1.381   0.166  -1.141  0.00  0.00    +0.000 C 
ATOM     11  C9  UNL     1      -2.861   0.346  -1.113  0.00  0.00    +0.000 C 
ATOM     12  C10 UNL     1      -3.389   0.738   0.242  0.00  0.00    +0.000 C 
ATOM     13  C11 UNL     1      -2.272   0.998   1.226  0.00  0.00    +0.000 C 
ATOM     14  C12 UNL     1      -1.458  -0.267   1.333  0.00  0.00    +0.000 C 
ENDBRANCH   4   9
BRANCH   3  15
ATOM     15  O2  UNL     1       0.689  -2.956  -0.358  0.00  0.00    +0.000 OA
ATOM     16  H1  UNL     1       1.084  -3.566  -1.067  0.00  0.00    +0.000 HD
ENDBRANCH   3  15
TORSDOF 2
