MODEL 1
REMARK VINA RESULT:      -5.5      0.000      0.000
REMARK  Name = ./3D_structures\o12_MMV1593520_3D.pdb
REMARK  4 active torsions:
REMARK  status: ('A' for Active; 'I' for Inactive)
REMARK    1  A    between atoms: O1_1  and  C1_2
REMARK    2  A    between atoms: C1_2  and  C2_3
REMARK    3  A    between atoms: C3_5  and  N4_11
REMARK    4  A    between atoms: C5_7  and  N1_8
REMARK                            x       y       z     vdW  Elec       q    Type
REMARK                         _______ _______ _______ _____ _____    ______ ____
ROOT
ATOM      1  C2  UNL     1     145.994 165.386 165.408  0.00  0.00    +0.000 C 
ATOM      2  O2  UNL     1     146.218 164.021 165.416  0.00  0.00    +0.000 OA
ATOM      3  C3  UNL     1     145.034 163.374 165.647  0.00  0.00    +0.000 C 
ATOM      4  C4  UNL     1     143.942 164.367 165.867  0.00  0.00    +0.000 C 
ATOM      5  C5  UNL     1     144.703 165.647 166.104  0.00  0.00    +0.000 C 
ENDROOT
BRANCH   3   6
ATOM      6  N4  UNL     1     145.094 162.375 166.674  0.00  0.00    +0.000 N 
ATOM      7  C6  UNL     1     145.217 162.748 167.954  0.00  0.00    +0.000 A 
ATOM      8  C7  UNL     1     145.278 161.831 168.977  0.00  0.00    +0.000 A 
ATOM      9  C8  UNL     1     145.208 160.475 168.637  0.00  0.00    +0.000 A 
ATOM     10  O3  UNL     1     145.265 159.632 169.576  0.00  0.00    +0.000 OA
ATOM     11  N5  UNL     1     145.085 160.122 167.341  0.00  0.00    +0.000 N 
ATOM     12  C9  UNL     1     145.030 161.063 166.376  0.00  0.00    +0.000 A 
ATOM     13  O4  UNL     1     144.915 160.714 165.176  0.00  0.00    +0.000 OA
ATOM     14  H11 UNL     1     145.034 159.106 167.097  0.00  0.00    +0.000 HD
ENDBRANCH   3   6
BRANCH   5  15
ATOM     15  N1  UNL     1     143.975 166.781 165.586  0.00  0.00    +0.000 NA
ATOM     16  N2  UNL     1     144.500 167.900 165.655  0.00  0.00    +0.000 NA
ATOM     17  N3  UNL     1     144.750 169.059 166.022  0.00  0.00    +0.000 NA
ENDBRANCH   5  15
BRANCH   1  18
ATOM     18  C1  UNL     1     147.169 166.044 166.129  0.00  0.00    +0.000 C 
BRANCH  18  19
ATOM     19  O1  UNL     1     147.312 167.375 165.778  0.00  0.00    +0.000 OA
ATOM     20  H1  UNL     1     146.516 167.662 165.266  0.00  0.00    +0.000 HD
ENDBRANCH  18  19
ENDBRANCH   1  18
TORSDOF 4
ENDMDL
MODEL 2
REMARK VINA RESULT:      -5.4      3.385      4.096
REMARK  Name = ./3D_structures\o12_MMV1593520_3D.pdb
REMARK  4 active torsions:
REMARK  status: ('A' for Active; 'I' for Inactive)
REMARK    1  A    between atoms: O1_1  and  C1_2
REMARK    2  A    between atoms: C1_2  and  C2_3
REMARK    3  A    between atoms: C3_5  and  N4_11
REMARK    4  A    between atoms: C5_7  and  N1_8
REMARK                            x       y       z     vdW  Elec       q    Type
REMARK                         _______ _______ _______ _____ _____    ______ ____
ROOT
ATOM      1  C2  UNL     1     145.795 165.596 167.321  0.00  0.00    +0.000 C 
ATOM      2  O2  UNL     1     146.330 164.885 168.381  0.00  0.00    +0.000 OA
ATOM      3  C3  UNL     1     147.694 164.978 168.340  0.00  0.00    +0.000 C 
ATOM      4  C4  UNL     1     148.119 165.757 167.140  0.00  0.00    +0.000 C 
ATOM      5  C5  UNL     1     146.866 165.782 166.302  0.00  0.00    +0.000 C 
ENDROOT
BRANCH   3   6
ATOM      6  N4  UNL     1     148.378 163.724 168.461  0.00  0.00    +0.000 N 
ATOM      7  C6  UNL     1     148.141 162.752 167.571  0.00  0.00    +0.000 A 
ATOM      8  C7  UNL     1     148.771 161.531 167.640  0.00  0.00    +0.000 A 
ATOM      9  C8  UNL     1     149.681 161.330 168.684  0.00  0.00    +0.000 A 
ATOM     10  O3  UNL     1     150.260 160.209 168.749  0.00  0.00    +0.000 OA
ATOM     11  N5  UNL     1     149.904 162.323 169.569  0.00  0.00    +0.000 N 
ATOM     12  C9  UNL     1     149.259 163.502 169.455  0.00  0.00    +0.000 A 
ATOM     13  O4  UNL     1     149.481 164.413 170.289  0.00  0.00    +0.000 OA
ATOM     14  H11 UNL     1     150.587 162.163 170.347  0.00  0.00    +0.000 HD
ENDBRANCH   3   6
BRANCH   5  15
ATOM     15  N1  UNL     1     146.766 167.018 165.563  0.00  0.00    +0.000 NA
ATOM     16  N2  UNL     1     145.895 167.833 165.894  0.00  0.00    +0.000 NA
ATOM     17  N3  UNL     1     144.851 168.505 165.884  0.00  0.00    +0.000 NA
ENDBRANCH   5  15
BRANCH   1  18
ATOM     18  C1  UNL     1     144.625 164.782 166.772  0.00  0.00    +0.000 C 
BRANCH  18  19
ATOM     19  O1  UNL     1     143.913 165.482 165.814  0.00  0.00    +0.000 OA
ATOM     20  H1  UNL     1     144.527 166.091 165.334  0.00  0.00    +0.000 HD
ENDBRANCH  18  19
ENDBRANCH   1  18
TORSDOF 4
ENDMDL
MODEL 3
REMARK VINA RESULT:      -5.2      2.107      5.997
REMARK  Name = ./3D_structures\o12_MMV1593520_3D.pdb
REMARK  4 active torsions:
REMARK  status: ('A' for Active; 'I' for Inactive)
REMARK    1  A    between atoms: O1_1  and  C1_2
REMARK    2  A    between atoms: C1_2  and  C2_3
REMARK    3  A    between atoms: C3_5  and  N4_11
REMARK    4  A    between atoms: C5_7  and  N1_8
REMARK                            x       y       z     vdW  Elec       q    Type
REMARK                         _______ _______ _______ _____ _____    ______ ____
ROOT
ATOM      1  C2  UNL     1     144.725 161.575 167.084  0.00  0.00    +0.000 C 
ATOM      2  O2  UNL     1     144.222 162.818 167.426  0.00  0.00    +0.000 OA
ATOM      3  C3  UNL     1     143.773 163.446 166.297  0.00  0.00    +0.000 C 
ATOM      4  C4  UNL     1     144.039 162.597 165.098  0.00  0.00    +0.000 C 
ATOM      5  C5  UNL     1     145.023 161.582 165.624  0.00  0.00    +0.000 C 
ENDROOT
BRANCH   3   6
ATOM      6  N4  UNL     1     144.240 164.792 166.141  0.00  0.00    +0.000 N 
ATOM      7  C6  UNL     1     145.463 165.123 166.574  0.00  0.00    +0.000 A 
ATOM      8  C7  UNL     1     145.960 166.400 166.447  0.00  0.00    +0.000 A 
ATOM      9  C8  UNL     1     145.137 167.359 165.846  0.00  0.00    +0.000 A 
ATOM     10  O3  UNL     1     145.592 168.531 165.730  0.00  0.00    +0.000 OA
ATOM     11  N5  UNL     1     143.909 167.003 165.418  0.00  0.00    +0.000 N 
ATOM     12  C9  UNL     1     143.470 165.736 165.566  0.00  0.00    +0.000 A 
ATOM     13  O4  UNL     1     142.323 165.425 165.160  0.00  0.00    +0.000 OA
ATOM     14  H11 UNL     1     143.300 167.728 164.969  0.00  0.00    +0.000 HD
ENDBRANCH   3   6
BRANCH   5  15
ATOM     15  N1  UNL     1     144.836 160.304 164.980  0.00  0.00    +0.000 NA
ATOM     16  N2  UNL     1     145.697 159.430 165.145  0.00  0.00    +0.000 NA
ATOM     17  N3  UNL     1     146.648 158.663 164.927  0.00  0.00    +0.000 NA
ENDBRANCH   5  15
BRANCH   1  18
ATOM     18  C1  UNL     1     145.985 161.349 167.918  0.00  0.00    +0.000 C 
BRANCH  18  19
ATOM     19  O1  UNL     1     147.067 160.993 167.133  0.00  0.00    +0.000 OA
ATOM     20  H1  UNL     1     146.902 160.102 166.737  0.00  0.00    +0.000 HD
ENDBRANCH  18  19
ENDBRANCH   1  18
TORSDOF 4
ENDMDL
MODEL 4
REMARK VINA RESULT:      -5.2      2.126      2.761
REMARK  Name = ./3D_structures\o12_MMV1593520_3D.pdb
REMARK  4 active torsions:
REMARK  status: ('A' for Active; 'I' for Inactive)
REMARK    1  A    between atoms: O1_1  and  C1_2
REMARK    2  A    between atoms: C1_2  and  C2_3
REMARK    3  A    between atoms: C3_5  and  N4_11
REMARK    4  A    between atoms: C5_7  and  N1_8
REMARK                            x       y       z     vdW  Elec       q    Type
REMARK                         _______ _______ _______ _____ _____    ______ ____
ROOT
ATOM      1  C2  UNL     1     144.625 165.341 166.561  0.00  0.00    +0.000 C 
ATOM      2  O2  UNL     1     144.709 164.268 167.430  0.00  0.00    +0.000 OA
ATOM      3  C3  UNL     1     146.014 163.863 167.518  0.00  0.00    +0.000 C 
ATOM      4  C4  UNL     1     146.866 164.679 166.603  0.00  0.00    +0.000 C 
ATOM      5  C5  UNL     1     145.849 165.344 165.710  0.00  0.00    +0.000 C 
ENDROOT
BRANCH   3   6
ATOM      6  N4  UNL     1     146.210 162.453 167.352  0.00  0.00    +0.000 N 
ATOM      7  C6  UNL     1     145.319 161.738 166.653  0.00  0.00    +0.000 A 
ATOM      8  C7  UNL     1     145.460 160.383 166.463  0.00  0.00    +0.000 A 
ATOM      9  C8  UNL     1     146.579 159.762 167.031  0.00  0.00    +0.000 A 
ATOM     10  O3  UNL     1     146.709 158.518 166.858  0.00  0.00    +0.000 OA
ATOM     11  N5  UNL     1     147.463 160.502 167.731  0.00  0.00    +0.000 N 
ATOM     12  C9  UNL     1     147.277 161.829 167.887  0.00  0.00    +0.000 A 
ATOM     13  O4  UNL     1     148.112 162.499 168.542  0.00  0.00    +0.000 OA
ATOM     14  H11 UNL     1     148.297 160.029 168.152  0.00  0.00    +0.000 HD
ENDBRANCH   3   6
BRANCH   5  15
ATOM     15  N1  UNL     1     146.291 166.662 165.321  0.00  0.00    +0.000 NA
ATOM     16  N2  UNL     1     145.707 167.644 165.799  0.00  0.00    +0.000 NA
ATOM     17  N3  UNL     1     144.969 168.636 165.900  0.00  0.00    +0.000 NA
ENDBRANCH   5  15
BRANCH   1  18
ATOM     18  C1  UNL     1     143.358 165.153 165.729  0.00  0.00    +0.000 C 
BRANCH  18  19
ATOM     19  O1  UNL     1     142.717 166.355 165.484  0.00  0.00    +0.000 OA
ATOM     20  H1  UNL     1     142.763 166.555 164.516  0.00  0.00    +0.000 HD
ENDBRANCH  18  19
ENDBRANCH   1  18
TORSDOF 4
ENDMDL
MODEL 5
REMARK VINA RESULT:      -5.2      3.719      5.165
REMARK  Name = ./3D_structures\o12_MMV1593520_3D.pdb
REMARK  4 active torsions:
REMARK  status: ('A' for Active; 'I' for Inactive)
REMARK    1  A    between atoms: O1_1  and  C1_2
REMARK    2  A    between atoms: C1_2  and  C2_3
REMARK    3  A    between atoms: C3_5  and  N4_11
REMARK    4  A    between atoms: C5_7  and  N1_8
REMARK                            x       y       z     vdW  Elec       q    Type
REMARK                         _______ _______ _______ _____ _____    ______ ____
ROOT
ATOM      1  C2  UNL     1     146.227 166.306 165.496  0.00  0.00    +0.000 C 
ATOM      2  O2  UNL     1     147.413 166.655 166.117  0.00  0.00    +0.000 OA
ATOM      3  C3  UNL     1     148.057 165.518 166.523  0.00  0.00    +0.000 C 
ATOM      4  C4  UNL     1     147.227 164.318 166.209  0.00  0.00    +0.000 C 
ATOM      5  C5  UNL     1     145.875 164.920 165.914  0.00  0.00    +0.000 C 
ENDROOT
BRANCH   3   6
ATOM      6  N4  UNL     1     148.505 165.544 167.885  0.00  0.00    +0.000 N 
ATOM      7  C6  UNL     1     147.671 165.168 168.863  0.00  0.00    +0.000 A 
ATOM      8  C7  UNL     1     148.050 165.173 170.186  0.00  0.00    +0.000 A 
ATOM      9  C8  UNL     1     149.353 165.590 170.484  0.00  0.00    +0.000 A 
ATOM     10  O3  UNL     1     149.701 165.595 171.698  0.00  0.00    +0.000 OA
ATOM     11  N5  UNL     1     150.175 165.965 169.483  0.00  0.00    +0.000 N 
ATOM     12  C9  UNL     1     149.752 165.941 168.202  0.00  0.00    +0.000 A 
ATOM     13  O4  UNL     1     150.533 166.293 167.285  0.00  0.00    +0.000 OA
ATOM     14  H11 UNL     1     151.147 166.275 169.717  0.00  0.00    +0.000 HD
ENDBRANCH   3   6
BRANCH   5  15
ATOM     15  N1  UNL     1     145.183 164.158 164.902  0.00  0.00    +0.000 NA
ATOM     16  N2  UNL     1     145.005 162.949 165.094  0.00  0.00    +0.000 NA
ATOM     17  N3  UNL     1     145.125 161.716 165.008  0.00  0.00    +0.000 NA
ENDBRANCH   5  15
BRANCH   1  18
ATOM     18  C1  UNL     1     145.169 167.316 165.937  0.00  0.00    +0.000 C 
BRANCH  18  19
ATOM     19  O1  UNL     1     145.554 168.618 165.668  0.00  0.00    +0.000 OA
ATOM     20  H1  UNL     1     146.541 168.661 165.614  0.00  0.00    +0.000 HD
ENDBRANCH  18  19
ENDBRANCH   1  18
TORSDOF 4
ENDMDL
MODEL 6
REMARK VINA RESULT:      -5.1      3.262      5.599
REMARK  Name = ./3D_structures\o12_MMV1593520_3D.pdb
REMARK  4 active torsions:
REMARK  status: ('A' for Active; 'I' for Inactive)
REMARK    1  A    between atoms: O1_1  and  C1_2
REMARK    2  A    between atoms: C1_2  and  C2_3
REMARK    3  A    between atoms: C3_5  and  N4_11
REMARK    4  A    between atoms: C5_7  and  N1_8
REMARK                            x       y       z     vdW  Elec       q    Type
REMARK                         _______ _______ _______ _____ _____    ______ ____
ROOT
ATOM      1  C2  UNL     1     147.977 163.556 167.835  0.00  0.00    +0.000 C 
ATOM      2  O2  UNL     1     147.554 164.240 166.710  0.00  0.00    +0.000 OA
ATOM      3  C3  UNL     1     146.931 165.396 167.096  0.00  0.00    +0.000 C 
ATOM      4  C4  UNL     1     146.876 165.476 168.585  0.00  0.00    +0.000 C 
ATOM      5  C5  UNL     1     147.204 164.064 169.003  0.00  0.00    +0.000 C 
ENDROOT
BRANCH   3   6
ATOM      6  N4  UNL     1     145.657 165.618 166.478  0.00  0.00    +0.000 N 
ATOM      7  C6  UNL     1     144.716 164.668 166.541  0.00  0.00    +0.000 A 
ATOM      8  C7  UNL     1     143.476 164.830 165.967  0.00  0.00    +0.000 A 
ATOM      9  C8  UNL     1     143.223 166.036 165.303  0.00  0.00    +0.000 A 
ATOM     10  O3  UNL     1     142.085 166.186 164.776  0.00  0.00    +0.000 OA
ATOM     11  N5  UNL     1     144.185 166.979 165.253  0.00  0.00    +0.000 N 
ATOM     12  C9  UNL     1     145.385 166.769 165.833  0.00  0.00    +0.000 A 
ATOM     13  O4  UNL     1     146.267 167.660 165.775  0.00  0.00    +0.000 OA
ATOM     14  H11 UNL     1     143.986 167.878 164.754  0.00  0.00    +0.000 HD
ENDBRANCH   3   6
BRANCH   5  15
ATOM     15  N1  UNL     1     147.940 164.054 170.245  0.00  0.00    +0.000 NA
ATOM     16  N2  UNL     1     148.592 165.061 170.551  0.00  0.00    +0.000 NA
ATOM     17  N3  UNL     1     149.552 165.823 170.747  0.00  0.00    +0.000 NA
ENDBRANCH   5  15
BRANCH   1  18
ATOM     18  C1  UNL     1     147.717 162.071 167.588  0.00  0.00    +0.000 C 
BRANCH  18  19
ATOM     19  O1  UNL     1     148.860 161.408 167.176  0.00  0.00    +0.000 OA
ATOM     20  H1  UNL     1     149.210 160.868 167.927  0.00  0.00    +0.000 HD
ENDBRANCH  18  19
ENDBRANCH   1  18
TORSDOF 4
ENDMDL
MODEL 7
REMARK VINA RESULT:      -4.9      3.419      4.781
REMARK  Name = ./3D_structures\o12_MMV1593520_3D.pdb
REMARK  4 active torsions:
REMARK  status: ('A' for Active; 'I' for Inactive)
REMARK    1  A    between atoms: O1_1  and  C1_2
REMARK    2  A    between atoms: C1_2  and  C2_3
REMARK    3  A    between atoms: C3_5  and  N4_11
REMARK    4  A    between atoms: C5_7  and  N1_8
REMARK                            x       y       z     vdW  Elec       q    Type
REMARK                         _______ _______ _______ _____ _____    ______ ____
ROOT
ATOM      1  C2  UNL     1     148.105 165.198 168.134  0.00  0.00    +0.000 C 
ATOM      2  O2  UNL     1     147.370 165.398 166.979  0.00  0.00    +0.000 OA
ATOM      3  C3  UNL     1     146.036 165.353 167.284  0.00  0.00    +0.000 C 
ATOM      4  C4  UNL     1     145.851 165.046 168.733  0.00  0.00    +0.000 C 
ATOM      5  C5  UNL     1     147.217 164.554 169.142  0.00  0.00    +0.000 C 
ENDROOT
BRANCH   3   6
ATOM      6  N4  UNL     1     145.261 164.502 166.430  0.00  0.00    +0.000 N 
ATOM      7  C6  UNL     1     145.550 163.196 166.357  0.00  0.00    +0.000 A 
ATOM      8  C7  UNL     1     144.837 162.336 165.556  0.00  0.00    +0.000 A 
ATOM      9  C8  UNL     1     143.784 162.872 164.805  0.00  0.00    +0.000 A 
ATOM     10  O3  UNL     1     143.130 162.083 164.068  0.00  0.00    +0.000 OA
ATOM     11  N5  UNL     1     143.511 164.190 164.893  0.00  0.00    +0.000 N 
ATOM     12  C9  UNL     1     144.242 164.990 165.696  0.00  0.00    +0.000 A 
ATOM     13  O4  UNL     1     143.971 166.214 165.765  0.00  0.00    +0.000 OA
ATOM     14  H11 UNL     1     142.722 164.582 164.328  0.00  0.00    +0.000 HD
ENDBRANCH   3   6
BRANCH   5  15
ATOM     15  N1  UNL     1     147.509 164.925 170.506  0.00  0.00    +0.000 NA
ATOM     16  N2  UNL     1     148.683 165.175 170.810  0.00  0.00    +0.000 NA
ATOM     17  N3  UNL     1     149.822 165.058 171.289  0.00  0.00    +0.000 NA
ENDBRANCH   5  15
BRANCH   1  18
ATOM     18  C1  UNL     1     149.289 164.304 167.769  0.00  0.00    +0.000 C 
BRANCH  18  19
ATOM     19  O1  UNL     1     149.508 163.322 168.720  0.00  0.00    +0.000 OA
ATOM     20  H1  UNL     1     149.935 162.541 168.288  0.00  0.00    +0.000 HD
ENDBRANCH  18  19
ENDBRANCH   1  18
TORSDOF 4
ENDMDL
MODEL 8
REMARK VINA RESULT:      -4.8      4.529      6.058
REMARK  Name = ./3D_structures\o12_MMV1593520_3D.pdb
REMARK  4 active torsions:
REMARK  status: ('A' for Active; 'I' for Inactive)
REMARK    1  A    between atoms: O1_1  and  C1_2
REMARK    2  A    between atoms: C1_2  and  C2_3
REMARK    3  A    between atoms: C3_5  and  N4_11
REMARK    4  A    between atoms: C5_7  and  N1_8
REMARK                            x       y       z     vdW  Elec       q    Type
REMARK                         _______ _______ _______ _____ _____    ______ ____
ROOT
ATOM      1  C2  UNL     1     148.401 165.525 168.744  0.00  0.00    +0.000 C 
ATOM      2  O2  UNL     1     149.667 165.601 168.189  0.00  0.00    +0.000 OA
ATOM      3  C3  UNL     1     149.568 165.477 166.830  0.00  0.00    +0.000 C 
ATOM      4  C4  UNL     1     148.146 165.242 166.438  0.00  0.00    +0.000 C 
ATOM      5  C5  UNL     1     147.499 164.878 167.751  0.00  0.00    +0.000 C 
ENDROOT
BRANCH   3   6
ATOM      6  N4  UNL     1     150.469 164.521 166.254  0.00  0.00    +0.000 N 
ATOM      7  C6  UNL     1     150.602 163.314 166.818  0.00  0.00    +0.000 A 
ATOM      8  C7  UNL     1     151.451 162.360 166.306  0.00  0.00    +0.000 A 
ATOM      9  C8  UNL     1     152.185 162.694 165.161  0.00  0.00    +0.000 A 
ATOM     10  O3  UNL     1     152.965 161.819 164.691  0.00  0.00    +0.000 OA
ATOM     11  N5  UNL     1     152.035 163.915 164.611  0.00  0.00    +0.000 N 
ATOM     12  C9  UNL     1     151.187 164.814 165.154  0.00  0.00    +0.000 A 
ATOM     13  O4  UNL     1     151.062 165.946 164.625  0.00  0.00    +0.000 OA
ATOM     14  H11 UNL     1     152.588 164.156 163.755  0.00  0.00    +0.000 HD
ENDBRANCH   3   6
BRANCH   5  15
ATOM     15  N1  UNL     1     146.136 165.350 167.800  0.00  0.00    +0.000 NA
ATOM     16  N2  UNL     1     145.256 164.572 168.191  0.00  0.00    +0.000 NA
ATOM     17  N3  UNL     1     144.293 163.789 168.182  0.00  0.00    +0.000 NA
ENDBRANCH   5  15
BRANCH   1  18
ATOM     18  C1  UNL     1     148.517 164.701 170.025  0.00  0.00    +0.000 C 
BRANCH  18  19
ATOM     19  O1  UNL     1     147.276 164.356 170.531  0.00  0.00    +0.000 OA
ATOM     20  H1  UNL     1     147.395 163.700 171.262  0.00  0.00    +0.000 HD
ENDBRANCH  18  19
ENDBRANCH   1  18
TORSDOF 4
ENDMDL
MODEL 9
REMARK VINA RESULT:      -4.7     25.404     27.949
REMARK  Name = ./3D_structures\o12_MMV1593520_3D.pdb
REMARK  4 active torsions:
REMARK  status: ('A' for Active; 'I' for Inactive)
REMARK    1  A    between atoms: O1_1  and  C1_2
REMARK    2  A    between atoms: C1_2  and  C2_3
REMARK    3  A    between atoms: C3_5  and  N4_11
REMARK    4  A    between atoms: C5_7  and  N1_8
REMARK                            x       y       z     vdW  Elec       q    Type
REMARK                         _______ _______ _______ _____ _____    ______ ____
ROOT
ATOM      1  C2  UNL     1     153.940 139.133 162.216  0.00  0.00    +0.000 C 
ATOM      2  O2  UNL     1     154.107 137.950 161.518  0.00  0.00    +0.000 OA
ATOM      3  C3  UNL     1     155.189 138.068 160.689  0.00  0.00    +0.000 C 
ATOM      4  C4  UNL     1     155.764 139.443 160.789  0.00  0.00    +0.000 C 
ATOM      5  C5  UNL     1     154.667 140.208 161.485  0.00  0.00    +0.000 C 
ENDROOT
BRANCH   3   6
ATOM      6  N4  UNL     1     154.948 137.662 159.336  0.00  0.00    +0.000 N 
ATOM      7  C6  UNL     1     154.165 138.410 158.549  0.00  0.00    +0.000 A 
ATOM      8  C7  UNL     1     153.903 138.067 157.243  0.00  0.00    +0.000 A 
ATOM      9  C8  UNL     1     154.485 136.892 156.753  0.00  0.00    +0.000 A 
ATOM     10  O3  UNL     1     154.244 136.576 155.554  0.00  0.00    +0.000 OA
ATOM     11  N5  UNL     1     155.270 136.154 157.563  0.00  0.00    +0.000 N 
ATOM     12  C9  UNL     1     155.496 136.537 158.837  0.00  0.00    +0.000 A 
ATOM     13  O4  UNL     1     156.230 135.835 159.574  0.00  0.00    +0.000 OA
ATOM     14  H11 UNL     1     155.702 135.277 157.187  0.00  0.00    +0.000 HD
ENDBRANCH   3   6
BRANCH   5  15
ATOM     15  N1  UNL     1     155.219 141.231 162.341  0.00  0.00    +0.000 NA
ATOM     16  N2  UNL     1     155.156 141.070 163.567  0.00  0.00    +0.000 NA
ATOM     17  N3  UNL     1     154.802 141.192 164.751  0.00  0.00    +0.000 NA
ENDBRANCH   5  15
BRANCH   1  18
ATOM     18  C1  UNL     1     152.439 139.411 162.286  0.00  0.00    +0.000 C 
BRANCH  18  19
ATOM     19  O1  UNL     1     152.164 140.611 162.919  0.00  0.00    +0.000 OA
ATOM     20  H1  UNL     1     151.374 141.028 162.494  0.00  0.00    +0.000 HD
ENDBRANCH  18  19
ENDBRANCH   1  18
TORSDOF 4
ENDMDL
