MODEL 1
REMARK VINA RESULT:      -7.5      0.000      0.000
REMARK  Name = ./3D_structures\o14_MMV1580794_3D.pdb
REMARK  17 active torsions:
REMARK  status: ('A' for Active; 'I' for Inactive)
REMARK    1  A    between atoms: C1_1  and  C2_2
REMARK    2  A    between atoms: C2_2  and  N1_3
REMARK    3  A    between atoms: C2_2  and  C15_19
REMARK    4  A    between atoms: C3_4  and  C4_6
REMARK    5  A    between atoms: N2_8  and  C5_9
REMARK    6  A    between atoms: C10_14  and  C11_15
REMARK    7  A    between atoms: C11_15  and  C12_16
REMARK    8  A    between atoms: C11_15  and  C13_17
REMARK    9  A    between atoms: C11_15  and  C14_18
REMARK   10  A    between atoms: N3_21  and  C16_22
REMARK   11  A    between atoms: C16_22  and  C17_23
REMARK   12  A    between atoms: C16_22  and  C19_27
REMARK   13  A    between atoms: C17_23  and  C18_24
REMARK   14  A    between atoms: C18_24  and  O5_26
REMARK   15  A    between atoms: C19_27  and  C20_29
REMARK   16  A    between atoms: C20_29  and  O7_30
REMARK   17  A    between atoms: O7_30  and  C21_31
REMARK                            x       y       z     vdW  Elec       q    Type
REMARK                         _______ _______ _______ _____ _____    ______ ____
ROOT
ATOM      1  C15 UNL     1     150.429 162.698 170.117  0.00  0.00    +0.000 C 
ATOM      2  O3  UNL     1     149.638 161.915 169.589  0.00  0.00    +0.000 OA
ATOM      3  N3  UNL     1     150.268 164.102 169.980  0.00  0.00    +0.000 N 
ATOM      4  H20 UNL     1     150.965 164.694 170.432  0.00  0.00    +0.000 HD
ENDROOT
BRANCH   1   6
ATOM      5  C1  UNL     1     152.450 163.270 171.406  0.00  0.00    +0.000 C 
ATOM      6  C2  UNL     1     151.568 162.158 170.914  0.00  0.00    +0.000 C 
BRANCH   6   7
ATOM      7  N1  UNL     1     152.355 161.214 170.175  0.00  0.00    +0.000 N 
ATOM      8  C3  UNL     1     152.353 159.813 170.364  0.00  0.00    +0.000 C 
ATOM      9  O1  UNL     1     151.598 159.341 171.246  0.00  0.00    +0.000 OA
ATOM     10  H5  UNL     1     153.005 161.560 169.411  0.00  0.00    +0.000 HD
BRANCH   8  11
ATOM     11  C4  UNL     1     153.181 158.886 169.587  0.00  0.00    +0.000 C 
ATOM     12  O2  UNL     1     152.796 157.704 169.575  0.00  0.00    +0.000 OA
ATOM     13  N2  UNL     1     154.338 159.254 168.890  0.00  0.00    +0.000 N 
ATOM     14  H6  UNL     1     154.565 160.290 168.977  0.00  0.00    +0.000 HD
BRANCH  13  15
ATOM     15  C5  UNL     1     155.179 158.445 168.120  0.00  0.00    +0.000 A 
ATOM     16  C6  UNL     1     154.814 157.937 166.862  0.00  0.00    +0.000 A 
ATOM     17  C7  UNL     1     155.670 157.153 166.118  0.00  0.00    +0.000 A 
ATOM     18  C8  UNL     1     156.923 156.843 166.597  0.00  0.00    +0.000 A 
ATOM     19  C9  UNL     1     157.302 157.333 167.836  0.00  0.00    +0.000 A 
ATOM     20  C10 UNL     1     156.430 158.136 168.599  0.00  0.00    +0.000 A 
BRANCH  20  21
ATOM     21  C11 UNL     1     156.910 158.599 169.880  0.00  0.00    +0.000 C 
ATOM     22  C12 UNL     1     156.674 160.008 170.270  0.00  0.00    +0.000 C 
ATOM     23  C13 UNL     1     156.330 157.679 170.951  0.00  0.00    +0.000 C 
ATOM     24  C14 UNL     1     158.433 158.354 169.957  0.00  0.00    +0.000 C 
ENDBRANCH  20  21
ENDBRANCH  13  15
ENDBRANCH   8  11
ENDBRANCH   6   7
ENDBRANCH   1   6
BRANCH   3  25
ATOM     25  C16 UNL     1     149.149 164.665 169.219  0.00  0.00    +0.000 C 
BRANCH  25  26
ATOM     26  C19 UNL     1     149.549 165.663 168.238  0.00  0.00    +0.000 C 
ATOM     27  O6  UNL     1     150.011 166.744 168.713  0.00  0.00    +0.000 OA
BRANCH  26  28
ATOM     28  C20 UNL     1     149.471 165.545 166.807  0.00  0.00    +0.000 C 
BRANCH  28  29
ATOM     29  O7  UNL     1     148.434 165.019 166.118  0.00  0.00    +0.000 OA
BRANCH  29  30
ATOM     30  C21 UNL     1     147.085 164.963 166.225  0.00  0.00    +0.000 A 
ATOM     31  C22 UNL     1     146.531 163.748 166.712  0.00  0.00    +0.000 A 
ATOM     32  F1  UNL     1     147.419 162.755 167.027  0.00  0.00    +0.000 F 
ATOM     33  C23 UNL     1     145.188 163.559 166.862  0.00  0.00    +0.000 A 
ATOM     34  F2  UNL     1     144.706 162.377 167.336  0.00  0.00    +0.000 F 
ATOM     35  C24 UNL     1     144.356 164.605 166.521  0.00  0.00    +0.000 A 
ATOM     36  C25 UNL     1     144.847 165.775 166.053  0.00  0.00    +0.000 A 
ATOM     37  F3  UNL     1     143.981 166.775 165.729  0.00  0.00    +0.000 F 
ATOM     38  C26 UNL     1     146.239 165.973 165.895  0.00  0.00    +0.000 A 
ATOM     39  F4  UNL     1     146.607 167.174 165.371  0.00  0.00    +0.000 F 
ENDBRANCH  29  30
ENDBRANCH  28  29
ENDBRANCH  26  28
ENDBRANCH  25  26
BRANCH  25  40
ATOM     40  C17 UNL     1     148.203 165.266 170.255  0.00  0.00    +0.000 C 
BRANCH  40  41
ATOM     41  C18 UNL     1     146.866 164.659 170.116  0.00  0.00    +0.000 C 
ATOM     42  O4  UNL     1     146.688 163.438 170.247  0.00  0.00    +0.000 OA
BRANCH  41  43
ATOM     43  O5  UNL     1     145.751 165.460 169.827  0.00  0.00    +0.000 OA
ATOM     44  H24 UNL     1     145.762 166.152 169.085  0.00  0.00    +0.000 HD
ENDBRANCH  41  43
ENDBRANCH  40  41
ENDBRANCH  25  40
ENDBRANCH   3  25
TORSDOF 13
ENDMDL
MODEL 2
REMARK VINA RESULT:      -7.2      0.810      2.040
REMARK  Name = ./3D_structures\o14_MMV1580794_3D.pdb
REMARK  17 active torsions:
REMARK  status: ('A' for Active; 'I' for Inactive)
REMARK    1  A    between atoms: C1_1  and  C2_2
REMARK    2  A    between atoms: C2_2  and  N1_3
REMARK    3  A    between atoms: C2_2  and  C15_19
REMARK    4  A    between atoms: C3_4  and  C4_6
REMARK    5  A    between atoms: N2_8  and  C5_9
REMARK    6  A    between atoms: C10_14  and  C11_15
REMARK    7  A    between atoms: C11_15  and  C12_16
REMARK    8  A    between atoms: C11_15  and  C13_17
REMARK    9  A    between atoms: C11_15  and  C14_18
REMARK   10  A    between atoms: N3_21  and  C16_22
REMARK   11  A    between atoms: C16_22  and  C17_23
REMARK   12  A    between atoms: C16_22  and  C19_27
REMARK   13  A    between atoms: C17_23  and  C18_24
REMARK   14  A    between atoms: C18_24  and  O5_26
REMARK   15  A    between atoms: C19_27  and  C20_29
REMARK   16  A    between atoms: C20_29  and  O7_30
REMARK   17  A    between atoms: O7_30  and  C21_31
REMARK                            x       y       z     vdW  Elec       q    Type
REMARK                         _______ _______ _______ _____ _____    ______ ____
ROOT
ATOM      1  C15 UNL     1     150.147 162.323 169.792  0.00  0.00    +0.000 C 
ATOM      2  O3  UNL     1     149.262 161.671 169.239  0.00  0.00    +0.000 OA
ATOM      3  N3  UNL     1     150.133 163.743 169.768  0.00  0.00    +0.000 N 
ATOM      4  H20 UNL     1     150.904 164.221 170.236  0.00  0.00    +0.000 HD
ENDROOT
BRANCH   1   6
ATOM      5  C1  UNL     1     151.869 162.486 171.549  0.00  0.00    +0.000 C 
ATOM      6  C2  UNL     1     151.247 161.606 170.502  0.00  0.00    +0.000 C 
BRANCH   6   7
ATOM      7  N1  UNL     1     152.263 161.137 169.605  0.00  0.00    +0.000 N 
ATOM      8  C3  UNL     1     152.439 159.797 169.189  0.00  0.00    +0.000 C 
ATOM      9  O1  UNL     1     151.641 158.937 169.629  0.00  0.00    +0.000 OA
ATOM     10  H5  UNL     1     152.959 161.826 169.199  0.00  0.00    +0.000 HD
BRANCH   8  11
ATOM     11  C4  UNL     1     153.499 159.363 168.274  0.00  0.00    +0.000 C 
ATOM     12  O2  UNL     1     153.547 159.964 167.187  0.00  0.00    +0.000 OA
ATOM     13  N2  UNL     1     154.417 158.345 168.554  0.00  0.00    +0.000 N 
ATOM     14  H6  UNL     1     154.273 157.906 169.513  0.00  0.00    +0.000 HD
BRANCH  13  15
ATOM     15  C5  UNL     1     155.461 157.876 167.751  0.00  0.00    +0.000 A 
ATOM     16  C6  UNL     1     155.261 157.348 166.464  0.00  0.00    +0.000 A 
ATOM     17  C7  UNL     1     156.311 156.905 165.689  0.00  0.00    +0.000 A 
ATOM     18  C8  UNL     1     157.602 156.970 166.163  0.00  0.00    +0.000 A 
ATOM     19  C9  UNL     1     157.820 157.486 167.430  0.00  0.00    +0.000 A 
ATOM     20  C10 UNL     1     156.750 157.940 168.226  0.00  0.00    +0.000 A 
BRANCH  20  21
ATOM     21  C11 UNL     1     157.073 158.460 169.534  0.00  0.00    +0.000 C 
ATOM     22  C12 UNL     1     156.365 157.920 170.718  0.00  0.00    +0.000 C 
ATOM     23  C13 UNL     1     158.577 158.303 169.735  0.00  0.00    +0.000 C 
ATOM     24  C14 UNL     1     156.850 159.988 169.529  0.00  0.00    +0.000 C 
ENDBRANCH  20  21
ENDBRANCH  13  15
ENDBRANCH   8  11
ENDBRANCH   6   7
ENDBRANCH   1   6
BRANCH   3  25
ATOM     25  C16 UNL     1     149.059 164.478 169.095  0.00  0.00    +0.000 C 
BRANCH  25  26
ATOM     26  C19 UNL     1     149.527 165.585 168.275  0.00  0.00    +0.000 C 
ATOM     27  O6  UNL     1     150.035 166.559 168.909  0.00  0.00    +0.000 OA
BRANCH  26  28
ATOM     28  C20 UNL     1     149.470 165.681 166.842  0.00  0.00    +0.000 C 
BRANCH  28  29
ATOM     29  O7  UNL     1     148.463 165.225 166.064  0.00  0.00    +0.000 OA
BRANCH  29  30
ATOM     30  C21 UNL     1     147.129 165.014 166.173  0.00  0.00    +0.000 A 
ATOM     31  C22 UNL     1     146.280 166.109 165.861  0.00  0.00    +0.000 A 
ATOM     32  F1  UNL     1     146.896 167.271 165.481  0.00  0.00    +0.000 F 
ATOM     33  C23 UNL     1     144.920 166.031 165.935  0.00  0.00    +0.000 A 
ATOM     34  F2  UNL     1     144.148 167.108 165.624  0.00  0.00    +0.000 F 
ATOM     35  C24 UNL     1     144.372 164.828 166.329  0.00  0.00    +0.000 A 
ATOM     36  C25 UNL     1     145.149 163.763 166.635  0.00  0.00    +0.000 A 
ATOM     37  F3  UNL     1     144.558 162.600 167.021  0.00  0.00    +0.000 F 
ATOM     38  C26 UNL     1     146.560 163.843 166.561  0.00  0.00    +0.000 A 
ATOM     39  F4  UNL     1     147.233 162.722 166.939  0.00  0.00    +0.000 F 
ENDBRANCH  29  30
ENDBRANCH  28  29
ENDBRANCH  26  28
ENDBRANCH  25  26
BRANCH  25  40
ATOM     40  C17 UNL     1     148.136 164.972 170.206  0.00  0.00    +0.000 C 
BRANCH  40  41
ATOM     41  C18 UNL     1     146.785 164.415 170.012  0.00  0.00    +0.000 C 
ATOM     42  O4  UNL     1     145.804 165.146 169.797  0.00  0.00    +0.000 OA
BRANCH  41  43
ATOM     43  O5  UNL     1     146.573 163.029 170.069  0.00  0.00    +0.000 OA
ATOM     44  H24 UNL     1     146.520 162.457 169.233  0.00  0.00    +0.000 HD
ENDBRANCH  41  43
ENDBRANCH  40  41
ENDBRANCH  25  40
ENDBRANCH   3  25
TORSDOF 13
ENDMDL
MODEL 3
REMARK VINA RESULT:      -7.2      2.546      3.711
REMARK  Name = ./3D_structures\o14_MMV1580794_3D.pdb
REMARK  17 active torsions:
REMARK  status: ('A' for Active; 'I' for Inactive)
REMARK    1  A    between atoms: C1_1  and  C2_2
REMARK    2  A    between atoms: C2_2  and  N1_3
REMARK    3  A    between atoms: C2_2  and  C15_19
REMARK    4  A    between atoms: C3_4  and  C4_6
REMARK    5  A    between atoms: N2_8  and  C5_9
REMARK    6  A    between atoms: C10_14  and  C11_15
REMARK    7  A    between atoms: C11_15  and  C12_16
REMARK    8  A    between atoms: C11_15  and  C13_17
REMARK    9  A    between atoms: C11_15  and  C14_18
REMARK   10  A    between atoms: N3_21  and  C16_22
REMARK   11  A    between atoms: C16_22  and  C17_23
REMARK   12  A    between atoms: C16_22  and  C19_27
REMARK   13  A    between atoms: C17_23  and  C18_24
REMARK   14  A    between atoms: C18_24  and  O5_26
REMARK   15  A    between atoms: C19_27  and  C20_29
REMARK   16  A    between atoms: C20_29  and  O7_30
REMARK   17  A    between atoms: O7_30  and  C21_31
REMARK                            x       y       z     vdW  Elec       q    Type
REMARK                         _______ _______ _______ _____ _____    ______ ____
ROOT
ATOM      1  C15 UNL     1     149.688 161.688 169.394  0.00  0.00    +0.000 C 
ATOM      2  O3  UNL     1     149.165 160.635 169.028  0.00  0.00    +0.000 OA
ATOM      3  N3  UNL     1     149.075 162.940 169.125  0.00  0.00    +0.000 N 
ATOM      4  H20 UNL     1     149.568 163.774 169.446  0.00  0.00    +0.000 HD
ENDROOT
BRANCH   1   6
ATOM      5  C1  UNL     1     151.582 163.014 170.248  0.00  0.00    +0.000 C 
ATOM      6  C2  UNL     1     150.983 161.641 170.134  0.00  0.00    +0.000 C 
BRANCH   6   7
ATOM      7  N1  UNL     1     151.930 160.753 169.524  0.00  0.00    +0.000 N 
ATOM      8  C3  UNL     1     152.210 159.433 169.944  0.00  0.00    +0.000 C 
ATOM      9  O1  UNL     1     151.580 158.985 170.930  0.00  0.00    +0.000 OA
ATOM     10  H5  UNL     1     152.485 161.081 168.682  0.00  0.00    +0.000 HD
BRANCH   8  11
ATOM     11  C4  UNL     1     153.195 158.565 169.292  0.00  0.00    +0.000 C 
ATOM     12  O2  UNL     1     152.976 157.344 169.384  0.00  0.00    +0.000 OA
ATOM     13  N2  UNL     1     154.323 159.025 168.603  0.00  0.00    +0.000 N 
ATOM     14  H6  UNL     1     154.401 160.086 168.595  0.00  0.00    +0.000 HD
BRANCH  13  15
ATOM     15  C5  UNL     1     155.302 158.274 167.946  0.00  0.00    +0.000 A 
ATOM     16  C6  UNL     1     155.119 157.726 166.666  0.00  0.00    +0.000 A 
ATOM     17  C7  UNL     1     156.109 157.001 166.037  0.00  0.00    +0.000 A 
ATOM     18  C8  UNL     1     157.321 156.794 166.657  0.00  0.00    +0.000 A 
ATOM     19  C9  UNL     1     157.521 157.326 167.920  0.00  0.00    +0.000 A 
ATOM     20  C10 UNL     1     156.512 158.068 168.567  0.00  0.00    +0.000 A 
BRANCH  20  21
ATOM     21  C11 UNL     1     156.810 158.581 169.883  0.00  0.00    +0.000 C 
ATOM     22  C12 UNL     1     156.399 159.961 170.228  0.00  0.00    +0.000 C 
ATOM     23  C13 UNL     1     156.216 157.612 170.902  0.00  0.00    +0.000 C 
ATOM     24  C14 UNL     1     158.334 158.488 170.119  0.00  0.00    +0.000 C 
ENDBRANCH  20  21
ENDBRANCH  13  15
ENDBRANCH   8  11
ENDBRANCH   6   7
ENDBRANCH   1   6
BRANCH   3  25
ATOM     25  C16 UNL     1     147.795 163.020 168.417  0.00  0.00    +0.000 C 
BRANCH  25  26
ATOM     26  C19 UNL     1     147.763 164.033 167.373  0.00  0.00    +0.000 C 
ATOM     27  O6  UNL     1     146.618 164.285 166.889  0.00  0.00    +0.000 OA
BRANCH  26  28
ATOM     28  C20 UNL     1     148.883 164.764 166.844  0.00  0.00    +0.000 C 
BRANCH  28  29
ATOM     29  O7  UNL     1     150.164 164.335 166.835  0.00  0.00    +0.000 OA
BRANCH  29  30
ATOM     30  C21 UNL     1     151.105 164.006 165.917  0.00  0.00    +0.000 A 
ATOM     31  C22 UNL     1     151.353 162.620 165.723  0.00  0.00    +0.000 A 
ATOM     32  F1  UNL     1     150.613 161.755 166.484  0.00  0.00    +0.000 F 
ATOM     33  C23 UNL     1     152.277 162.155 164.833  0.00  0.00    +0.000 A 
ATOM     34  F2  UNL     1     152.476 160.817 164.682  0.00  0.00    +0.000 F 
ATOM     35  C24 UNL     1     152.985 163.088 164.104  0.00  0.00    +0.000 A 
ATOM     36  C25 UNL     1     152.777 164.415 164.263  0.00  0.00    +0.000 A 
ATOM     37  F3  UNL     1     153.504 165.293 163.520  0.00  0.00    +0.000 F 
ATOM     38  C26 UNL     1     151.820 164.900 165.186  0.00  0.00    +0.000 A 
ATOM     39  F4  UNL     1     151.736 166.254 165.289  0.00  0.00    +0.000 F 
ENDBRANCH  29  30
ENDBRANCH  28  29
ENDBRANCH  26  28
ENDBRANCH  25  26
BRANCH  25  40
ATOM     40  C17 UNL     1     146.745 163.305 169.488  0.00  0.00    +0.000 C 
BRANCH  40  41
ATOM     41  C18 UNL     1     146.920 164.677 170.000  0.00  0.00    +0.000 C 
ATOM     42  O4  UNL     1     147.917 165.003 170.664  0.00  0.00    +0.000 OA
BRANCH  41  43
ATOM     43  O5  UNL     1     145.949 165.658 169.746  0.00  0.00    +0.000 OA
ATOM     44  H24 UNL     1     144.959 165.484 169.882  0.00  0.00    +0.000 HD
ENDBRANCH  41  43
ENDBRANCH  40  41
ENDBRANCH  25  40
ENDBRANCH   3  25
TORSDOF 13
ENDMDL
MODEL 4
REMARK VINA RESULT:      -7.2      2.871      4.829
REMARK  Name = ./3D_structures\o14_MMV1580794_3D.pdb
REMARK  17 active torsions:
REMARK  status: ('A' for Active; 'I' for Inactive)
REMARK    1  A    between atoms: C1_1  and  C2_2
REMARK    2  A    between atoms: C2_2  and  N1_3
REMARK    3  A    between atoms: C2_2  and  C15_19
REMARK    4  A    between atoms: C3_4  and  C4_6
REMARK    5  A    between atoms: N2_8  and  C5_9
REMARK    6  A    between atoms: C10_14  and  C11_15
REMARK    7  A    between atoms: C11_15  and  C12_16
REMARK    8  A    between atoms: C11_15  and  C13_17
REMARK    9  A    between atoms: C11_15  and  C14_18
REMARK   10  A    between atoms: N3_21  and  C16_22
REMARK   11  A    between atoms: C16_22  and  C17_23
REMARK   12  A    between atoms: C16_22  and  C19_27
REMARK   13  A    between atoms: C17_23  and  C18_24
REMARK   14  A    between atoms: C18_24  and  O5_26
REMARK   15  A    between atoms: C19_27  and  C20_29
REMARK   16  A    between atoms: C20_29  and  O7_30
REMARK   17  A    between atoms: O7_30  and  C21_31
REMARK                            x       y       z     vdW  Elec       q    Type
REMARK                         _______ _______ _______ _____ _____    ______ ____
ROOT
ATOM      1  C15 UNL     1     149.351 163.966 169.797  0.00  0.00    +0.000 C 
ATOM      2  O3  UNL     1     148.936 162.807 169.809  0.00  0.00    +0.000 OA
ATOM      3  N3  UNL     1     148.809 164.927 168.904  0.00  0.00    +0.000 N 
ATOM      4  H20 UNL     1     149.207 165.866 168.938  0.00  0.00    +0.000 HD
ENDROOT
BRANCH   1   6
ATOM      5  C1  UNL     1     150.799 165.809 170.561  0.00  0.00    +0.000 C 
ATOM      6  C2  UNL     1     150.438 164.362 170.740  0.00  0.00    +0.000 C 
BRANCH   6   7
ATOM      7  N1  UNL     1     151.613 163.553 170.592  0.00  0.00    +0.000 N 
ATOM      8  C3  UNL     1     152.304 162.905 171.641  0.00  0.00    +0.000 C 
ATOM      9  O1  UNL     1     151.859 163.035 172.805  0.00  0.00    +0.000 OA
ATOM     10  H5  UNL     1     152.027 163.405 169.626  0.00  0.00    +0.000 HD
BRANCH   8  11
ATOM     11  C4  UNL     1     153.508 162.094 171.441  0.00  0.00    +0.000 C 
ATOM     12  O2  UNL     1     154.568 162.730 171.312  0.00  0.00    +0.000 OA
ATOM     13  N2  UNL     1     153.520 160.695 171.389  0.00  0.00    +0.000 N 
ATOM     14  H6  UNL     1     152.554 160.266 171.511  0.00  0.00    +0.000 HD
BRANCH  13  15
ATOM     15  C5  UNL     1     154.615 159.844 171.214  0.00  0.00    +0.000 A 
ATOM     16  C6  UNL     1     155.559 159.591 172.223  0.00  0.00    +0.000 A 
ATOM     17  C7  UNL     1     156.622 158.735 172.025  0.00  0.00    +0.000 A 
ATOM     18  C8  UNL     1     156.787 158.098 170.816  0.00  0.00    +0.000 A 
ATOM     19  C9  UNL     1     155.868 158.335 169.808  0.00  0.00    +0.000 A 
ATOM     20  C10 UNL     1     154.780 159.208 170.005  0.00  0.00    +0.000 A 
BRANCH  20  21
ATOM     21  C11 UNL     1     153.874 159.396 168.896  0.00  0.00    +0.000 C 
ATOM     22  C12 UNL     1     152.414 159.332 169.140  0.00  0.00    +0.000 C 
ATOM     23  C13 UNL     1     154.214 160.733 168.244  0.00  0.00    +0.000 C 
ATOM     24  C14 UNL     1     154.199 158.351 167.807  0.00  0.00    +0.000 C 
ENDBRANCH  20  21
ENDBRANCH  13  15
ENDBRANCH   8  11
ENDBRANCH   6   7
ENDBRANCH   1   6
BRANCH   3  25
ATOM     25  C16 UNL     1     147.729 164.576 167.978  0.00  0.00    +0.000 C 
BRANCH  25  26
ATOM     26  C19 UNL     1     147.880 165.154 166.652  0.00  0.00    +0.000 C 
ATOM     27  O6  UNL     1     146.832 165.171 165.938  0.00  0.00    +0.000 OA
BRANCH  26  28
ATOM     28  C20 UNL     1     149.082 165.697 166.079  0.00  0.00    +0.000 C 
BRANCH  28  29
ATOM     29  O7  UNL     1     150.326 165.199 166.248  0.00  0.00    +0.000 OA
BRANCH  29  30
ATOM     30  C21 UNL     1     151.099 164.226 165.708  0.00  0.00    +0.000 A 
ATOM     31  C22 UNL     1     151.946 164.605 164.631  0.00  0.00    +0.000 A 
ATOM     32  F1  UNL     1     151.897 165.918 164.249  0.00  0.00    +0.000 F 
ATOM     33  C23 UNL     1     152.769 163.721 163.996  0.00  0.00    +0.000 A 
ATOM     34  F2  UNL     1     153.565 164.134 162.971  0.00  0.00    +0.000 F 
ATOM     35  C24 UNL     1     152.761 162.414 164.436  0.00  0.00    +0.000 A 
ATOM     36  C25 UNL     1     151.967 162.016 165.457  0.00  0.00    +0.000 A 
ATOM     37  F3  UNL     1     151.996 160.714 165.850  0.00  0.00    +0.000 F 
ATOM     38  C26 UNL     1     151.111 162.930 166.116  0.00  0.00    +0.000 A 
ATOM     39  F4  UNL     1     150.327 162.401 167.094  0.00  0.00    +0.000 F 
ENDBRANCH  29  30
ENDBRANCH  28  29
ENDBRANCH  26  28
ENDBRANCH  25  26
BRANCH  25  40
ATOM     40  C17 UNL     1     146.441 165.058 168.641  0.00  0.00    +0.000 C 
BRANCH  40  41
ATOM     41  C18 UNL     1     145.578 163.902 168.945  0.00  0.00    +0.000 C 
ATOM     42  O4  UNL     1     144.472 163.753 168.400  0.00  0.00    +0.000 OA
BRANCH  41  43
ATOM     43  O5  UNL     1     145.991 162.932 169.871  0.00  0.00    +0.000 OA
ATOM     44  H24 UNL     1     145.833 163.036 170.868  0.00  0.00    +0.000 HD
ENDBRANCH  41  43
ENDBRANCH  40  41
ENDBRANCH  25  40
ENDBRANCH   3  25
TORSDOF 13
ENDMDL
MODEL 5
REMARK VINA RESULT:      -7.2      2.692      4.174
REMARK  Name = ./3D_structures\o14_MMV1580794_3D.pdb
REMARK  17 active torsions:
REMARK  status: ('A' for Active; 'I' for Inactive)
REMARK    1  A    between atoms: C1_1  and  C2_2
REMARK    2  A    between atoms: C2_2  and  N1_3
REMARK    3  A    between atoms: C2_2  and  C15_19
REMARK    4  A    between atoms: C3_4  and  C4_6
REMARK    5  A    between atoms: N2_8  and  C5_9
REMARK    6  A    between atoms: C10_14  and  C11_15
REMARK    7  A    between atoms: C11_15  and  C12_16
REMARK    8  A    between atoms: C11_15  and  C13_17
REMARK    9  A    between atoms: C11_15  and  C14_18
REMARK   10  A    between atoms: N3_21  and  C16_22
REMARK   11  A    between atoms: C16_22  and  C17_23
REMARK   12  A    between atoms: C16_22  and  C19_27
REMARK   13  A    between atoms: C17_23  and  C18_24
REMARK   14  A    between atoms: C18_24  and  O5_26
REMARK   15  A    between atoms: C19_27  and  C20_29
REMARK   16  A    between atoms: C20_29  and  O7_30
REMARK   17  A    between atoms: O7_30  and  C21_31
REMARK                            x       y       z     vdW  Elec       q    Type
REMARK                         _______ _______ _______ _____ _____    ______ ____
ROOT
ATOM      1  C15 UNL     1     149.878 162.836 169.320  0.00  0.00    +0.000 C 
ATOM      2  O3  UNL     1     149.067 161.910 169.297  0.00  0.00    +0.000 OA
ATOM      3  N3  UNL     1     149.564 164.095 168.743  0.00  0.00    +0.000 N 
ATOM      4  H20 UNL     1     150.286 164.815 168.786  0.00  0.00    +0.000 HD
ENDROOT
BRANCH   1   6
ATOM      5  C1  UNL     1     152.009 163.898 169.957  0.00  0.00    +0.000 C 
ATOM      6  C2  UNL     1     151.205 162.629 169.969  0.00  0.00    +0.000 C 
BRANCH   6   7
ATOM      7  N1  UNL     1     151.960 161.578 169.350  0.00  0.00    +0.000 N 
ATOM      8  C3  UNL     1     152.353 160.371 169.972  0.00  0.00    +0.000 C 
ATOM      9  O1  UNL     1     152.014 160.187 171.164  0.00  0.00    +0.000 OA
ATOM     10  H5  UNL     1     152.265 161.680 168.340  0.00  0.00    +0.000 HD
BRANCH   8  11
ATOM     11  C4  UNL     1     153.131 159.327 169.299  0.00  0.00    +0.000 C 
ATOM     12  O2  UNL     1     152.655 158.180 169.360  0.00  0.00    +0.000 OA
ATOM     13  N2  UNL     1     154.337 159.550 168.624  0.00  0.00    +0.000 N 
ATOM     14  H6  UNL     1     154.642 160.569 168.643  0.00  0.00    +0.000 HD
BRANCH  13  15
ATOM     15  C5  UNL     1     155.136 158.622 167.950  0.00  0.00    +0.000 A 
ATOM     16  C6  UNL     1     154.800 158.088 166.695  0.00  0.00    +0.000 A 
ATOM     17  C7  UNL     1     155.615 157.184 166.047  0.00  0.00    +0.000 A 
ATOM     18  C8  UNL     1     156.798 156.778 166.622  0.00  0.00    +0.000 A 
ATOM     19  C9  UNL     1     157.147 157.292 167.860  0.00  0.00    +0.000 A 
ATOM     20  C10 UNL     1     156.317 158.216 168.526  0.00  0.00    +0.000 A 
BRANCH  20  21
ATOM     21  C11 UNL     1     156.762 158.696 169.813  0.00  0.00    +0.000 C 
ATOM     22  C12 UNL     1     156.583 160.128 170.148  0.00  0.00    +0.000 C 
ATOM     23  C13 UNL     1     156.086 157.843 170.883  0.00  0.00    +0.000 C 
ATOM     24  C14 UNL     1     158.265 158.377 169.969  0.00  0.00    +0.000 C 
ENDBRANCH  20  21
ENDBRANCH  13  15
ENDBRANCH   8  11
ENDBRANCH   6   7
ENDBRANCH   1   6
BRANCH   3  25
ATOM     25  C16 UNL     1     148.263 164.337 168.113  0.00  0.00    +0.000 C 
BRANCH  25  26
ATOM     26  C19 UNL     1     148.322 165.227 166.965  0.00  0.00    +0.000 C 
ATOM     27  O6  UNL     1     147.251 165.854 166.702  0.00  0.00    +0.000 OA
BRANCH  26  28
ATOM     28  C20 UNL     1     149.456 165.462 166.111  0.00  0.00    +0.000 C 
BRANCH  28  29
ATOM     29  O7  UNL     1     150.677 164.905 166.260  0.00  0.00    +0.000 OA
BRANCH  29  30
ATOM     30  C21 UNL     1     151.511 164.110 165.546  0.00  0.00    +0.000 A 
ATOM     31  C22 UNL     1     152.397 164.757 164.644  0.00  0.00    +0.000 A 
ATOM     32  F1  UNL     1     152.321 166.123 164.588  0.00  0.00    +0.000 F 
ATOM     33  C23 UNL     1     153.282 164.073 163.863  0.00  0.00    +0.000 A 
ATOM     34  F2  UNL     1     154.113 164.740 163.015  0.00  0.00    +0.000 F 
ATOM     35  C24 UNL     1     153.299 162.699 163.973  0.00  0.00    +0.000 A 
ATOM     36  C25 UNL     1     152.469 162.047 164.820  0.00  0.00    +0.000 A 
ATOM     37  F3  UNL     1     152.524 160.689 164.888  0.00  0.00    +0.000 F 
ATOM     38  C26 UNL     1     151.549 162.754 165.629  0.00  0.00    +0.000 A 
ATOM     39  F4  UNL     1     150.735 161.986 166.405  0.00  0.00    +0.000 F 
ENDBRANCH  29  30
ENDBRANCH  28  29
ENDBRANCH  26  28
ENDBRANCH  25  26
BRANCH  25  40
ATOM     40  C17 UNL     1     147.374 164.916 169.210  0.00  0.00    +0.000 C 
BRANCH  40  41
ATOM     41  C18 UNL     1     146.200 164.045 169.408  0.00  0.00    +0.000 C 
ATOM     42  O4  UNL     1     145.110 164.289 168.866  0.00  0.00    +0.000 OA
BRANCH  41  43
ATOM     43  O5  UNL     1     146.290 162.908 170.225  0.00  0.00    +0.000 OA
ATOM     44  H24 UNL     1     145.470 162.470 170.631  0.00  0.00    +0.000 HD
ENDBRANCH  41  43
ENDBRANCH  40  41
ENDBRANCH  25  40
ENDBRANCH   3  25
TORSDOF 13
ENDMDL
MODEL 6
REMARK VINA RESULT:      -6.8      2.808      4.295
REMARK  Name = ./3D_structures\o14_MMV1580794_3D.pdb
REMARK  17 active torsions:
REMARK  status: ('A' for Active; 'I' for Inactive)
REMARK    1  A    between atoms: C1_1  and  C2_2
REMARK    2  A    between atoms: C2_2  and  N1_3
REMARK    3  A    between atoms: C2_2  and  C15_19
REMARK    4  A    between atoms: C3_4  and  C4_6
REMARK    5  A    between atoms: N2_8  and  C5_9
REMARK    6  A    between atoms: C10_14  and  C11_15
REMARK    7  A    between atoms: C11_15  and  C12_16
REMARK    8  A    between atoms: C11_15  and  C13_17
REMARK    9  A    between atoms: C11_15  and  C14_18
REMARK   10  A    between atoms: N3_21  and  C16_22
REMARK   11  A    between atoms: C16_22  and  C17_23
REMARK   12  A    between atoms: C16_22  and  C19_27
REMARK   13  A    between atoms: C17_23  and  C18_24
REMARK   14  A    between atoms: C18_24  and  O5_26
REMARK   15  A    between atoms: C19_27  and  C20_29
REMARK   16  A    between atoms: C20_29  and  O7_30
REMARK   17  A    between atoms: O7_30  and  C21_31
REMARK                            x       y       z     vdW  Elec       q    Type
REMARK                         _______ _______ _______ _____ _____    ______ ____
ROOT
ATOM      1  C15 UNL     1     148.658 162.725 167.923  0.00  0.00    +0.000 C 
ATOM      2  O3  UNL     1     149.113 163.488 168.776  0.00  0.00    +0.000 OA
ATOM      3  N3  UNL     1     147.511 163.078 167.165  0.00  0.00    +0.000 N 
ATOM      4  H20 UNL     1     147.179 162.394 166.483  0.00  0.00    +0.000 HD
ENDROOT
BRANCH   1   6
ATOM      5  C1  UNL     1     148.368 160.278 167.885  0.00  0.00    +0.000 C 
ATOM      6  C2  UNL     1     149.330 161.414 167.684  0.00  0.00    +0.000 C 
BRANCH   6   7
ATOM      7  N1  UNL     1     150.477 161.225 168.524  0.00  0.00    +0.000 N 
ATOM      8  C3  UNL     1     151.824 161.251 168.095  0.00  0.00    +0.000 C 
ATOM      9  O1  UNL     1     152.049 161.461 166.880  0.00  0.00    +0.000 OA
ATOM     10  H5  UNL     1     150.342 161.051 169.561  0.00  0.00    +0.000 HD
BRANCH   8  11
ATOM     11  C4  UNL     1     152.966 161.045 168.990  0.00  0.00    +0.000 C 
ATOM     12  O2  UNL     1     153.707 162.030 169.150  0.00  0.00    +0.000 OA
ATOM     13  N2  UNL     1     153.251 159.841 169.645  0.00  0.00    +0.000 N 
ATOM     14  H6  UNL     1     152.547 159.072 169.428  0.00  0.00    +0.000 HD
BRANCH  13  15
ATOM     15  C5  UNL     1     154.305 159.559 170.519  0.00  0.00    +0.000 A 
ATOM     16  C6  UNL     1     154.378 160.074 171.824  0.00  0.00    +0.000 A 
ATOM     17  C7  UNL     1     155.423 159.768 172.669  0.00  0.00    +0.000 A 
ATOM     18  C8  UNL     1     156.436 158.935 172.250  0.00  0.00    +0.000 A 
ATOM     19  C9  UNL     1     156.383 158.417 170.966  0.00  0.00    +0.000 A 
ATOM     20  C10 UNL     1     155.317 158.727 170.098  0.00  0.00    +0.000 A 
BRANCH  20  21
ATOM     21  C11 UNL     1     155.347 158.143 168.778  0.00  0.00    +0.000 C 
ATOM     22  C12 UNL     1     155.491 159.031 167.602  0.00  0.00    +0.000 C 
ATOM     23  C13 UNL     1     156.461 157.101 168.760  0.00  0.00    +0.000 C 
ATOM     24  C14 UNL     1     154.056 157.320 168.571  0.00  0.00    +0.000 C 
ENDBRANCH  20  21
ENDBRANCH  13  15
ENDBRANCH   8  11
ENDBRANCH   6   7
ENDBRANCH   1   6
BRANCH   3  25
ATOM     25  C16 UNL     1     146.839 164.365 167.363  0.00  0.00    +0.000 C 
BRANCH  25  26
ATOM     26  C19 UNL     1     145.540 164.257 168.011  0.00  0.00    +0.000 C 
ATOM     27  O6  UNL     1     145.435 164.849 169.127  0.00  0.00    +0.000 OA
BRANCH  26  28
ATOM     28  C20 UNL     1     144.386 163.556 167.518  0.00  0.00    +0.000 C 
BRANCH  28  29
ATOM     29  O7  UNL     1     144.400 162.344 166.922  0.00  0.00    +0.000 OA
BRANCH  29  30
ATOM     30  C21 UNL     1     144.423 161.846 165.662  0.00  0.00    +0.000 A 
ATOM     31  C22 UNL     1     144.681 160.456 165.527  0.00  0.00    +0.000 A 
ATOM     32  F1  UNL     1     144.880 159.756 166.688  0.00  0.00    +0.000 F 
ATOM     33  C23 UNL     1     144.737 159.831 164.316  0.00  0.00    +0.000 A 
ATOM     34  F2  UNL     1     144.986 158.494 164.239  0.00  0.00    +0.000 F 
ATOM     35  C24 UNL     1     144.529 160.602 163.191  0.00  0.00    +0.000 A 
ATOM     36  C25 UNL     1     144.282 161.929 163.280  0.00  0.00    +0.000 A 
ATOM     37  F3  UNL     1     144.086 162.645 162.139  0.00  0.00    +0.000 F 
ATOM     38  C26 UNL     1     144.225 162.580 164.535  0.00  0.00    +0.000 A 
ATOM     39  F4  UNL     1     144.017 163.924 164.493  0.00  0.00    +0.000 F 
ENDBRANCH  29  30
ENDBRANCH  28  29
ENDBRANCH  26  28
ENDBRANCH  25  26
BRANCH  25  40
ATOM     40  C17 UNL     1     146.707 164.982 165.973  0.00  0.00    +0.000 C 
BRANCH  40  41
ATOM     41  C18 UNL     1     147.116 166.398 166.019  0.00  0.00    +0.000 C 
ATOM     42  O4  UNL     1     146.326 167.313 165.735  0.00  0.00    +0.000 OA
BRANCH  41  43
ATOM     43  O5  UNL     1     148.424 166.748 166.387  0.00  0.00    +0.000 OA
ATOM     44  H24 UNL     1     149.229 166.201 166.102  0.00  0.00    +0.000 HD
ENDBRANCH  41  43
ENDBRANCH  40  41
ENDBRANCH  25  40
ENDBRANCH   3  25
TORSDOF 13
ENDMDL
MODEL 7
REMARK VINA RESULT:      -6.8      2.548      3.971
REMARK  Name = ./3D_structures\o14_MMV1580794_3D.pdb
REMARK  17 active torsions:
REMARK  status: ('A' for Active; 'I' for Inactive)
REMARK    1  A    between atoms: C1_1  and  C2_2
REMARK    2  A    between atoms: C2_2  and  N1_3
REMARK    3  A    between atoms: C2_2  and  C15_19
REMARK    4  A    between atoms: C3_4  and  C4_6
REMARK    5  A    between atoms: N2_8  and  C5_9
REMARK    6  A    between atoms: C10_14  and  C11_15
REMARK    7  A    between atoms: C11_15  and  C12_16
REMARK    8  A    between atoms: C11_15  and  C13_17
REMARK    9  A    between atoms: C11_15  and  C14_18
REMARK   10  A    between atoms: N3_21  and  C16_22
REMARK   11  A    between atoms: C16_22  and  C17_23
REMARK   12  A    between atoms: C16_22  and  C19_27
REMARK   13  A    between atoms: C17_23  and  C18_24
REMARK   14  A    between atoms: C18_24  and  O5_26
REMARK   15  A    between atoms: C19_27  and  C20_29
REMARK   16  A    between atoms: C20_29  and  O7_30
REMARK   17  A    between atoms: O7_30  and  C21_31
REMARK                            x       y       z     vdW  Elec       q    Type
REMARK                         _______ _______ _______ _____ _____    ______ ____
ROOT
ATOM      1  C15 UNL     1     148.726 162.106 168.030  0.00  0.00    +0.000 C 
ATOM      2  O3  UNL     1     148.396 161.274 167.185  0.00  0.00    +0.000 OA
ATOM      3  N3  UNL     1     148.018 163.329 168.166  0.00  0.00    +0.000 N 
ATOM      4  H20 UNL     1     148.352 163.980 168.878  0.00  0.00    +0.000 HD
ENDROOT
BRANCH   1   6
ATOM      5  C1  UNL     1     150.318 163.058 169.654  0.00  0.00    +0.000 C 
ATOM      6  C2  UNL     1     149.884 161.817 168.926  0.00  0.00    +0.000 C 
BRANCH   6   7
ATOM      7  N1  UNL     1     151.000 161.263 168.215  0.00  0.00    +0.000 N 
ATOM      8  C3  UNL     1     151.928 160.333 168.737  0.00  0.00    +0.000 C 
ATOM      9  O1  UNL     1     151.770 159.946 169.918  0.00  0.00    +0.000 OA
ATOM     10  H5  UNL     1     151.175 161.552 167.210  0.00  0.00    +0.000 HD
BRANCH   8  11
ATOM     11  C4  UNL     1     153.060 159.800 167.974  0.00  0.00    +0.000 C 
ATOM     12  O2  UNL     1     153.290 160.365 166.891  0.00  0.00    +0.000 OA
ATOM     13  N2  UNL     1     153.859 158.727 168.389  0.00  0.00    +0.000 N 
ATOM     14  H6  UNL     1     153.563 158.327 169.329  0.00  0.00    +0.000 HD
BRANCH  13  15
ATOM     15  C5  UNL     1     154.958 158.163 167.735  0.00  0.00    +0.000 A 
ATOM     16  C6  UNL     1     154.923 157.750 166.392  0.00  0.00    +0.000 A 
ATOM     17  C7  UNL     1     156.027 157.209 165.769  0.00  0.00    +0.000 A 
ATOM     18  C8  UNL     1     157.210 157.058 166.457  0.00  0.00    +0.000 A 
ATOM     19  C9  UNL     1     157.265 157.457 167.782  0.00  0.00    +0.000 A 
ATOM     20  C10 UNL     1     156.139 158.011 168.423  0.00  0.00    +0.000 A 
BRANCH  20  21
ATOM     21  C11 UNL     1     156.289 158.397 169.807  0.00  0.00    +0.000 C 
ATOM     22  C12 UNL     1     155.725 159.690 170.259  0.00  0.00    +0.000 C 
ATOM     23  C13 UNL     1     155.714 157.273 170.664  0.00  0.00    +0.000 C 
ATOM     24  C14 UNL     1     157.793 158.409 170.158  0.00  0.00    +0.000 C 
ENDBRANCH  20  21
ENDBRANCH  13  15
ENDBRANCH   8  11
ENDBRANCH   6   7
ENDBRANCH   1   6
BRANCH   3  25
ATOM     25  C16 UNL     1     146.865 163.636 167.315  0.00  0.00    +0.000 C 
BRANCH  25  26
ATOM     26  C19 UNL     1     146.864 164.994 166.793  0.00  0.00    +0.000 C 
ATOM     27  O6  UNL     1     145.800 165.656 166.991  0.00  0.00    +0.000 OA
BRANCH  26  28
ATOM     28  C20 UNL     1     147.931 165.649 166.086  0.00  0.00    +0.000 C 
BRANCH  28  29
ATOM     29  O7  UNL     1     149.235 165.295 166.132  0.00  0.00    +0.000 OA
BRANCH  29  30
ATOM     30  C21 UNL     1     150.399 165.813 166.593  0.00  0.00    +0.000 A 
ATOM     31  C22 UNL     1     151.481 165.873 165.674  0.00  0.00    +0.000 A 
ATOM     32  F1  UNL     1     151.237 165.402 164.411  0.00  0.00    +0.000 F 
ATOM     33  C23 UNL     1     152.707 166.367 166.011  0.00  0.00    +0.000 A 
ATOM     34  F2  UNL     1     153.712 166.406 165.094  0.00  0.00    +0.000 F 
ATOM     35  C24 UNL     1     152.877 166.820 167.303  0.00  0.00    +0.000 A 
ATOM     36  C25 UNL     1     151.871 166.777 168.206  0.00  0.00    +0.000 A 
ATOM     37  F3  UNL     1     152.092 167.236 169.468  0.00  0.00    +0.000 F 
ATOM     38  C26 UNL     1     150.599 166.264 167.858  0.00  0.00    +0.000 A 
ATOM     39  F4  UNL     1     149.683 166.230 168.865  0.00  0.00    +0.000 F 
ENDBRANCH  29  30
ENDBRANCH  28  29
ENDBRANCH  26  28
ENDBRANCH  25  26
BRANCH  25  40
ATOM     40  C17 UNL     1     145.633 163.380 168.178  0.00  0.00    +0.000 C 
BRANCH  40  41
ATOM     41  C18 UNL     1     145.915 163.769 169.572  0.00  0.00    +0.000 C 
ATOM     42  O4  UNL     1     146.198 162.927 170.439  0.00  0.00    +0.000 OA
BRANCH  41  43
ATOM     43  O5  UNL     1     145.868 165.118 169.956  0.00  0.00    +0.000 OA
ATOM     44  H24 UNL     1     146.704 165.640 170.194  0.00  0.00    +0.000 HD
ENDBRANCH  41  43
ENDBRANCH  40  41
ENDBRANCH  25  40
ENDBRANCH   3  25
TORSDOF 13
ENDMDL
MODEL 8
REMARK VINA RESULT:      -6.7      1.742      3.078
REMARK  Name = ./3D_structures\o14_MMV1580794_3D.pdb
REMARK  17 active torsions:
REMARK  status: ('A' for Active; 'I' for Inactive)
REMARK    1  A    between atoms: C1_1  and  C2_2
REMARK    2  A    between atoms: C2_2  and  N1_3
REMARK    3  A    between atoms: C2_2  and  C15_19
REMARK    4  A    between atoms: C3_4  and  C4_6
REMARK    5  A    between atoms: N2_8  and  C5_9
REMARK    6  A    between atoms: C10_14  and  C11_15
REMARK    7  A    between atoms: C11_15  and  C12_16
REMARK    8  A    between atoms: C11_15  and  C13_17
REMARK    9  A    between atoms: C11_15  and  C14_18
REMARK   10  A    between atoms: N3_21  and  C16_22
REMARK   11  A    between atoms: C16_22  and  C17_23
REMARK   12  A    between atoms: C16_22  and  C19_27
REMARK   13  A    between atoms: C17_23  and  C18_24
REMARK   14  A    between atoms: C18_24  and  O5_26
REMARK   15  A    between atoms: C19_27  and  C20_29
REMARK   16  A    between atoms: C20_29  and  O7_30
REMARK   17  A    between atoms: O7_30  and  C21_31
REMARK                            x       y       z     vdW  Elec       q    Type
REMARK                         _______ _______ _______ _____ _____    ______ ____
ROOT
ATOM      1  C15 UNL     1     151.953 162.235 171.857  0.00  0.00    +0.000 C 
ATOM      2  O3  UNL     1     152.590 162.913 172.664  0.00  0.00    +0.000 OA
ATOM      3  N3  UNL     1     151.434 162.812 170.668  0.00  0.00    +0.000 N 
ATOM      4  H20 UNL     1     150.905 162.197 170.049  0.00  0.00    +0.000 HD
ENDROOT
BRANCH   1   6
ATOM      5  C1  UNL     1     151.891 160.494 173.601  0.00  0.00    +0.000 C 
ATOM      6  C2  UNL     1     151.730 160.787 172.136  0.00  0.00    +0.000 C 
BRANCH   6   7
ATOM      7  N1  UNL     1     152.609 159.942 171.380  0.00  0.00    +0.000 N 
ATOM      8  C3  UNL     1     152.350 159.433 170.087  0.00  0.00    +0.000 C 
ATOM      9  O1  UNL     1     151.266 159.743 169.540  0.00  0.00    +0.000 OA
ATOM     10  H5  UNL     1     153.542 159.656 171.794  0.00  0.00    +0.000 HD
BRANCH   8  11
ATOM     11  C4  UNL     1     153.277 158.565 169.355  0.00  0.00    +0.000 C 
ATOM     12  O2  UNL     1     152.992 157.355 169.356  0.00  0.00    +0.000 OA
ATOM     13  N2  UNL     1     154.421 159.015 168.685  0.00  0.00    +0.000 N 
ATOM     14  H6  UNL     1     154.558 160.068 168.758  0.00  0.00    +0.000 HD
BRANCH  13  15
ATOM     15  C5  UNL     1     155.349 158.266 167.958  0.00  0.00    +0.000 A 
ATOM     16  C6  UNL     1     155.085 157.748 166.679  0.00  0.00    +0.000 A 
ATOM     17  C7  UNL     1     156.026 157.024 165.979  0.00  0.00    +0.000 A 
ATOM     18  C8  UNL     1     157.268 156.787 166.523  0.00  0.00    +0.000 A 
ATOM     19  C9  UNL     1     157.549 157.288 167.784  0.00  0.00    +0.000 A 
ATOM     20  C10 UNL     1     156.590 158.029 168.503  0.00  0.00    +0.000 A 
BRANCH  20  21
ATOM     21  C11 UNL     1     156.970 158.510 169.810  0.00  0.00    +0.000 C 
ATOM     22  C12 UNL     1     156.333 157.917 171.009  0.00  0.00    +0.000 C 
ATOM     23  C13 UNL     1     158.486 158.373 169.930  0.00  0.00    +0.000 C 
ATOM     24  C14 UNL     1     156.723 160.033 169.870  0.00  0.00    +0.000 C 
ENDBRANCH  20  21
ENDBRANCH  13  15
ENDBRANCH   8  11
ENDBRANCH   6   7
ENDBRANCH   1   6
BRANCH   3  25
ATOM     25  C16 UNL     1     151.650 164.227 170.355  0.00  0.00    +0.000 C 
BRANCH  25  26
ATOM     26  C19 UNL     1     150.433 165.023 170.359  0.00  0.00    +0.000 C 
ATOM     27  O6  UNL     1     150.594 166.270 170.532  0.00  0.00    +0.000 OA
BRANCH  26  28
ATOM     28  C20 UNL     1     149.087 164.544 170.192  0.00  0.00    +0.000 C 
BRANCH  28  29
ATOM     29  O7  UNL     1     148.522 164.190 169.017  0.00  0.00    +0.000 OA
BRANCH  29  30
ATOM     30  C21 UNL     1     147.389 164.464 168.327  0.00  0.00    +0.000 A 
ATOM     31  C22 UNL     1     147.494 165.414 167.275  0.00  0.00    +0.000 A 
ATOM     32  F1  UNL     1     148.734 165.956 167.064  0.00  0.00    +0.000 F 
ATOM     33  C23 UNL     1     146.429 165.783 166.506  0.00  0.00    +0.000 A 
ATOM     34  F2  UNL     1     146.582 166.696 165.508  0.00  0.00    +0.000 F 
ATOM     35  C24 UNL     1     145.212 165.195 166.781  0.00  0.00    +0.000 A 
ATOM     36  C25 UNL     1     145.073 164.288 167.775  0.00  0.00    +0.000 A 
ATOM     37  F3  UNL     1     143.849 163.739 168.005  0.00  0.00    +0.000 F 
ATOM     38  C26 UNL     1     146.176 163.905 168.574  0.00  0.00    +0.000 A 
ATOM     39  F4  UNL     1     145.901 163.021 169.572  0.00  0.00    +0.000 F 
ENDBRANCH  29  30
ENDBRANCH  28  29
ENDBRANCH  26  28
ENDBRANCH  25  26
BRANCH  25  40
ATOM     40  C17 UNL     1     152.315 164.251 168.981  0.00  0.00    +0.000 C 
BRANCH  40  41
ATOM     41  C18 UNL     1     152.168 162.932 168.337  0.00  0.00    +0.000 C 
ATOM     42  O4  UNL     1     151.123 162.606 167.752  0.00  0.00    +0.000 OA
BRANCH  41  43
ATOM     43  O5  UNL     1     153.220 162.005 168.373  0.00  0.00    +0.000 OA
ATOM     44  H24 UNL     1     153.739 161.745 167.541  0.00  0.00    +0.000 HD
ENDBRANCH  41  43
ENDBRANCH  40  41
ENDBRANCH  25  40
ENDBRANCH   3  25
TORSDOF 13
ENDMDL
MODEL 9
REMARK VINA RESULT:      -6.7      2.339      3.837
REMARK  Name = ./3D_structures\o14_MMV1580794_3D.pdb
REMARK  17 active torsions:
REMARK  status: ('A' for Active; 'I' for Inactive)
REMARK    1  A    between atoms: C1_1  and  C2_2
REMARK    2  A    between atoms: C2_2  and  N1_3
REMARK    3  A    between atoms: C2_2  and  C15_19
REMARK    4  A    between atoms: C3_4  and  C4_6
REMARK    5  A    between atoms: N2_8  and  C5_9
REMARK    6  A    between atoms: C10_14  and  C11_15
REMARK    7  A    between atoms: C11_15  and  C12_16
REMARK    8  A    between atoms: C11_15  and  C13_17
REMARK    9  A    between atoms: C11_15  and  C14_18
REMARK   10  A    between atoms: N3_21  and  C16_22
REMARK   11  A    between atoms: C16_22  and  C17_23
REMARK   12  A    between atoms: C16_22  and  C19_27
REMARK   13  A    between atoms: C17_23  and  C18_24
REMARK   14  A    between atoms: C18_24  and  O5_26
REMARK   15  A    between atoms: C19_27  and  C20_29
REMARK   16  A    between atoms: C20_29  and  O7_30
REMARK   17  A    between atoms: O7_30  and  C21_31
REMARK                            x       y       z     vdW  Elec       q    Type
REMARK                         _______ _______ _______ _____ _____    ______ ____
ROOT
ATOM      1  C15 UNL     1     151.208 162.798 167.864  0.00  0.00    +0.000 C 
ATOM      2  O3  UNL     1     151.066 163.313 168.973  0.00  0.00    +0.000 OA
ATOM      3  N3  UNL     1     151.511 163.589 166.725  0.00  0.00    +0.000 N 
ATOM      4  H20 UNL     1     151.603 163.099 165.834  0.00  0.00    +0.000 HD
ENDROOT
BRANCH   1   6
ATOM      5  C1  UNL     1     150.056 160.786 168.701  0.00  0.00    +0.000 C 
ATOM      6  C2  UNL     1     151.063 161.320 167.722  0.00  0.00    +0.000 C 
BRANCH   6   7
ATOM      7  N1  UNL     1     152.308 160.628 167.892  0.00  0.00    +0.000 N 
ATOM      8  C3  UNL     1     153.263 160.391 166.877  0.00  0.00    +0.000 C 
ATOM      9  O1  UNL     1     153.015 160.822 165.726  0.00  0.00    +0.000 OA
ATOM     10  H5  UNL     1     152.570 160.250 168.848  0.00  0.00    +0.000 HD
BRANCH   8  11
ATOM     11  C4  UNL     1     154.521 159.672 167.096  0.00  0.00    +0.000 C 
ATOM     12  O2  UNL     1     154.620 158.577 166.516  0.00  0.00    +0.000 OA
ATOM     13  N2  UNL     1     155.570 160.139 167.896  0.00  0.00    +0.000 N 
ATOM     14  H6  UNL     1     155.367 161.085 168.339  0.00  0.00    +0.000 HD
BRANCH  13  15
ATOM     15  C5  UNL     1     156.802 159.529 168.152  0.00  0.00    +0.000 A 
ATOM     16  C6  UNL     1     157.842 159.475 167.209  0.00  0.00    +0.000 A 
ATOM     17  C7  UNL     1     159.051 158.878 167.495  0.00  0.00    +0.000 A 
ATOM     18  C8  UNL     1     159.274 158.313 168.731  0.00  0.00    +0.000 A 
ATOM     19  C9  UNL     1     158.261 158.355 169.674  0.00  0.00    +0.000 A 
ATOM     20  C10 UNL     1     157.022 158.964 169.387  0.00  0.00    +0.000 A 
BRANCH  20  21
ATOM     21  C11 UNL     1     156.025 158.958 170.430  0.00  0.00    +0.000 C 
ATOM     22  C12 UNL     1     155.221 160.180 170.664  0.00  0.00    +0.000 C 
ATOM     23  C13 UNL     1     155.086 157.784 170.166  0.00  0.00    +0.000 C 
ATOM     24  C14 UNL     1     156.709 158.600 171.768  0.00  0.00    +0.000 C 
ENDBRANCH  20  21
ENDBRANCH  13  15
ENDBRANCH   8  11
ENDBRANCH   6   7
ENDBRANCH   1   6
BRANCH   3  25
ATOM     25  C16 UNL     1     151.678 165.041 166.833  0.00  0.00    +0.000 C 
BRANCH  25  26
ATOM     26  C19 UNL     1     150.424 165.771 166.938  0.00  0.00    +0.000 C 
ATOM     27  O6  UNL     1     150.278 166.459 167.993  0.00  0.00    +0.000 OA
BRANCH  26  28
ATOM     28  C20 UNL     1     149.352 165.787 165.980  0.00  0.00    +0.000 C 
BRANCH  28  29
ATOM     29  O7  UNL     1     148.058 166.060 166.257  0.00  0.00    +0.000 OA
BRANCH  29  30
ATOM     30  C21 UNL     1     146.890 165.382 166.360  0.00  0.00    +0.000 A 
ATOM     31  C22 UNL     1     145.709 166.079 165.985  0.00  0.00    +0.000 A 
ATOM     32  F1  UNL     1     145.872 167.368 165.555  0.00  0.00    +0.000 F 
ATOM     33  C23 UNL     1     144.469 165.513 166.047  0.00  0.00    +0.000 A 
ATOM     34  F2  UNL     1     143.368 166.221 165.675  0.00  0.00    +0.000 F 
ATOM     35  C24 UNL     1     144.385 164.211 166.494  0.00  0.00    +0.000 A 
ATOM     36  C25 UNL     1     145.487 163.516 166.861  0.00  0.00    +0.000 A 
ATOM     37  F3  UNL     1     145.348 162.234 167.296  0.00  0.00    +0.000 F 
ATOM     38  C26 UNL     1     146.774 164.101 166.799  0.00  0.00    +0.000 A 
ATOM     39  F4  UNL     1     147.797 163.320 167.239  0.00  0.00    +0.000 F 
ENDBRANCH  29  30
ENDBRANCH  28  29
ENDBRANCH  26  28
ENDBRANCH  25  26
BRANCH  25  40
ATOM     40  C17 UNL     1     152.455 165.463 165.589  0.00  0.00    +0.000 C 
BRANCH  40  41
ATOM     41  C18 UNL     1     152.665 164.293 164.716  0.00  0.00    +0.000 C 
ATOM     42  O4  UNL     1     151.835 163.968 163.851  0.00  0.00    +0.000 OA
BRANCH  41  43
ATOM     43  O5  UNL     1     153.822 163.510 164.845  0.00  0.00    +0.000 OA
ATOM     44  H24 UNL     1     154.425 163.569 165.659  0.00  0.00    +0.000 HD
ENDBRANCH  41  43
ENDBRANCH  40  41
ENDBRANCH  25  40
ENDBRANCH   3  25
TORSDOF 13
ENDMDL
