MODEL 1
REMARK VINA RESULT:      -7.5      0.000      0.000
REMARK  Name = ./3D_structures\o18_MMV009948_3D.pdb
REMARK  8 active torsions:
REMARK  status: ('A' for Active; 'I' for Inactive)
REMARK    1  A    between atoms: C1_2  and  C18_24
REMARK    2  A    between atoms: N1_3  and  C2_4
REMARK    3  A    between atoms: C4_6  and  N2_11
REMARK    4  A    between atoms: C5_7  and  C6_8
REMARK    5  A    between atoms: C10_14  and  C13_18
REMARK    6  A    between atoms: C21_27  and  C22_28
REMARK    7  A    between atoms: C22_28  and  N6_29
REMARK    8  A    between atoms: N7_32  and  C25_33
REMARK                            x       y       z     vdW  Elec       q    Type
REMARK                         _______ _______ _______ _____ _____    ______ ____
ROOT
ATOM      1  C2  UNL     1     155.616 162.735 164.666  0.00  0.00    +0.000 A 
ATOM      2  C3  UNL     1     155.777 161.337 164.594  0.00  0.00    +0.000 A 
ATOM      3  C4  UNL     1     156.930 160.802 164.082  0.00  0.00    +0.000 A 
ATOM      4  C5  UNL     1     157.957 161.638 163.628  0.00  0.00    +0.000 A 
ATOM      5  C6  UNL     1     159.217 161.086 163.069  0.00  0.00    +0.000 C 
ATOM      6  C7  UNL     1     157.765 162.990 163.715  0.00  0.00    +0.000 A 
ATOM      7  C8  UNL     1     156.598 163.556 164.233  0.00  0.00    +0.000 A 
ENDROOT
BRANCH   3   8
ATOM      8  N2  UNL     1     157.143 159.427 163.979  0.00  0.00    +0.000 N 
ATOM      9  C9  UNL     1     157.256 158.459 165.011  0.00  0.00    +0.000 A 
ATOM     10  N3  UNL     1     157.190 158.673 166.316  0.00  0.00    +0.000 NA
ATOM     11  C10 UNL     1     157.291 157.769 167.297  0.00  0.00    +0.000 A 
ATOM     12  C11 UNL     1     157.490 156.451 166.896  0.00  0.00    +0.000 A 
ATOM     13  C12 UNL     1     157.568 156.171 165.541  0.00  0.00    +0.000 A 
ATOM     14  N4  UNL     1     157.454 157.147 164.646  0.00  0.00    +0.000 NA
ATOM     15  H8  UNL     1     157.235 159.026 162.990  0.00  0.00    +0.000 HD
BRANCH  11  16
ATOM     16  C13 UNL     1     157.215 158.089 168.718  0.00  0.00    +0.000 A 
ATOM     17  C14 UNL     1     158.352 158.106 169.495  0.00  0.00    +0.000 A 
ATOM     18  N5  UNL     1     158.327 158.400 170.831  0.00  0.00    +0.000 NA
ATOM     19  C15 UNL     1     157.188 158.692 171.470  0.00  0.00    +0.000 A 
ATOM     20  C16 UNL     1     156.025 158.687 170.738  0.00  0.00    +0.000 A 
ATOM     21  C17 UNL     1     156.037 158.387 169.366  0.00  0.00    +0.000 A 
ENDBRANCH  11  16
ENDBRANCH   3   8
BRANCH   1  24
ATOM     22  O1  UNL     1     153.258 163.505 163.195  0.00  0.00    +0.000 OA
ATOM     23  C1  UNL     1     153.286 163.594 164.469  0.00  0.00    +0.000 C 
ATOM     24  N1  UNL     1     154.423 163.223 165.212  0.00  0.00    +0.000 N 
ATOM     25  H1  UNL     1     154.361 163.338 166.271  0.00  0.00    +0.000 HD
BRANCH  23  26
ATOM     26  C18 UNL     1     152.113 164.090 165.166  0.00  0.00    +0.000 A 
ATOM     27  C19 UNL     1     151.540 165.278 164.778  0.00  0.00    +0.000 A 
ATOM     28  C20 UNL     1     150.419 165.796 165.390  0.00  0.00    +0.000 A 
ATOM     29  C21 UNL     1     149.847 165.114 166.420  0.00  0.00    +0.000 A 
ATOM     30  C28 UNL     1     150.391 163.925 166.836  0.00  0.00    +0.000 A 
ATOM     31  C29 UNL     1     151.537 163.410 166.200  0.00  0.00    +0.000 A 
BRANCH  29  32
ATOM     32  C22 UNL     1     148.645 165.635 167.089  0.00  0.00    +0.000 C 
BRANCH  32  33
ATOM     33  N6  UNL     1     147.766 164.561 167.400  0.00  0.00    +0.000 NA
ATOM     34  C23 UNL     1     147.395 164.420 168.766  0.00  0.00    +0.000 C 
ATOM     35  C24 UNL     1     146.072 165.069 169.102  0.00  0.00    +0.000 C 
ATOM     36  N7  UNL     1     145.025 164.559 168.239  0.00  0.00    +0.000 NA
ATOM     37  C25 UNL     1     144.869 163.127 168.414  0.00  0.00    +0.000 C 
ATOM     38  C26 UNL     1     145.383 164.915 166.882  0.00  0.00    +0.000 C 
ATOM     39  C27 UNL     1     146.704 164.368 166.457  0.00  0.00    +0.000 C 
ENDBRANCH  32  33
ENDBRANCH  29  32
ENDBRANCH  23  26
ENDBRANCH   1  24
TORSDOF 6
ENDMDL
MODEL 2
REMARK VINA RESULT:      -7.4      2.596     11.660
REMARK  Name = ./3D_structures\o18_MMV009948_3D.pdb
REMARK  8 active torsions:
REMARK  status: ('A' for Active; 'I' for Inactive)
REMARK    1  A    between atoms: C1_2  and  C18_24
REMARK    2  A    between atoms: N1_3  and  C2_4
REMARK    3  A    between atoms: C4_6  and  N2_11
REMARK    4  A    between atoms: C5_7  and  C6_8
REMARK    5  A    between atoms: C10_14  and  C13_18
REMARK    6  A    between atoms: C21_27  and  C22_28
REMARK    7  A    between atoms: C22_28  and  N6_29
REMARK    8  A    between atoms: N7_32  and  C25_33
REMARK                            x       y       z     vdW  Elec       q    Type
REMARK                         _______ _______ _______ _____ _____    ______ ____
ROOT
ATOM      1  C2  UNL     1     151.701 163.450 166.097  0.00  0.00    +0.000 A 
ATOM      2  C3  UNL     1     150.695 163.294 167.071  0.00  0.00    +0.000 A 
ATOM      3  C4  UNL     1     149.646 164.173 167.123  0.00  0.00    +0.000 A 
ATOM      4  C5  UNL     1     149.563 165.233 166.212  0.00  0.00    +0.000 A 
ATOM      5  C6  UNL     1     148.438 166.201 166.246  0.00  0.00    +0.000 C 
ATOM      6  C7  UNL     1     150.559 165.351 165.280  0.00  0.00    +0.000 A 
ATOM      7  C8  UNL     1     151.637 164.466 165.209  0.00  0.00    +0.000 A 
ENDROOT
BRANCH   3   8
ATOM      8  N2  UNL     1     148.625 164.074 168.069  0.00  0.00    +0.000 N 
ATOM      9  C9  UNL     1     147.294 163.608 167.904  0.00  0.00    +0.000 A 
ATOM     10  N3  UNL     1     146.735 163.169 166.787  0.00  0.00    +0.000 NA
ATOM     11  C10 UNL     1     145.486 162.724 166.620  0.00  0.00    +0.000 A 
ATOM     12  C11 UNL     1     144.679 162.723 167.754  0.00  0.00    +0.000 A 
ATOM     13  C12 UNL     1     145.214 163.173 168.952  0.00  0.00    +0.000 A 
ATOM     14  N4  UNL     1     146.473 163.596 169.008  0.00  0.00    +0.000 NA
ATOM     15  H8  UNL     1     148.858 164.387 169.066  0.00  0.00    +0.000 HD
BRANCH  11  16
ATOM     16  C13 UNL     1     144.942 162.263 165.346  0.00  0.00    +0.000 A 
ATOM     17  C14 UNL     1     144.613 160.938 165.163  0.00  0.00    +0.000 A 
ATOM     18  N5  UNL     1     144.101 160.462 163.988  0.00  0.00    +0.000 NA
ATOM     19  C15 UNL     1     143.886 161.260 162.935  0.00  0.00    +0.000 A 
ATOM     20  C16 UNL     1     144.200 162.591 163.068  0.00  0.00    +0.000 A 
ATOM     21  C17 UNL     1     144.726 163.092 164.269  0.00  0.00    +0.000 A 
ENDBRANCH  11  16
ENDBRANCH   3   8
BRANCH   1  24
ATOM     22  O1  UNL     1     151.641 160.858 164.833  0.00  0.00    +0.000 OA
ATOM     23  C1  UNL     1     152.683 161.251 165.457  0.00  0.00    +0.000 C 
ATOM     24  N1  UNL     1     152.740 162.512 166.082  0.00  0.00    +0.000 N 
ATOM     25  H1  UNL     1     153.647 162.755 166.588  0.00  0.00    +0.000 HD
BRANCH  23  26
ATOM     26  C18 UNL     1     153.837 160.373 165.524  0.00  0.00    +0.000 A 
ATOM     27  C19 UNL     1     155.036 160.778 164.986  0.00  0.00    +0.000 A 
ATOM     28  C20 UNL     1     156.171 159.998 165.030  0.00  0.00    +0.000 A 
ATOM     29  C21 UNL     1     156.116 158.775 165.625  0.00  0.00    +0.000 A 
ATOM     30  C28 UNL     1     154.937 158.335 166.171  0.00  0.00    +0.000 A 
ATOM     31  C29 UNL     1     153.787 159.145 166.119  0.00  0.00    +0.000 A 
BRANCH  29  32
ATOM     32  C22 UNL     1     157.311 157.920 165.695  0.00  0.00    +0.000 C 
BRANCH  32  33
ATOM     33  N6  UNL     1     157.331 157.031 164.586  0.00  0.00    +0.000 NA
ATOM     34  C23 UNL     1     158.263 157.325 163.553  0.00  0.00    +0.000 C 
ATOM     35  C24 UNL     1     159.561 156.560 163.675  0.00  0.00    +0.000 C 
ATOM     36  N7  UNL     1     159.303 155.135 163.731  0.00  0.00    +0.000 NA
ATOM     37  C25 UNL     1     158.640 154.686 162.521  0.00  0.00    +0.000 C 
ATOM     38  C26 UNL     1     158.511 154.894 164.918  0.00  0.00    +0.000 C 
ATOM     39  C27 UNL     1     157.222 155.644 164.931  0.00  0.00    +0.000 C 
ENDBRANCH  32  33
ENDBRANCH  29  32
ENDBRANCH  23  26
ENDBRANCH   1  24
TORSDOF 6
ENDMDL
MODEL 3
REMARK VINA RESULT:      -7.3      5.406      7.433
REMARK  Name = ./3D_structures\o18_MMV009948_3D.pdb
REMARK  8 active torsions:
REMARK  status: ('A' for Active; 'I' for Inactive)
REMARK    1  A    between atoms: C1_2  and  C18_24
REMARK    2  A    between atoms: N1_3  and  C2_4
REMARK    3  A    between atoms: C4_6  and  N2_11
REMARK    4  A    between atoms: C5_7  and  C6_8
REMARK    5  A    between atoms: C10_14  and  C13_18
REMARK    6  A    between atoms: C21_27  and  C22_28
REMARK    7  A    between atoms: C22_28  and  N6_29
REMARK    8  A    between atoms: N7_32  and  C25_33
REMARK                            x       y       z     vdW  Elec       q    Type
REMARK                         _______ _______ _______ _____ _____    ______ ____
ROOT
ATOM      1  C2  UNL     1     154.883 157.519 169.058  0.00  0.00    +0.000 A 
ATOM      2  C3  UNL     1     155.210 158.043 167.791  0.00  0.00    +0.000 A 
ATOM      3  C4  UNL     1     156.512 158.341 167.485  0.00  0.00    +0.000 A 
ATOM      4  C5  UNL     1     157.527 158.128 168.425  0.00  0.00    +0.000 A 
ATOM      5  C6  UNL     1     158.946 158.442 168.121  0.00  0.00    +0.000 C 
ATOM      6  C7  UNL     1     157.171 157.617 169.644  0.00  0.00    +0.000 A 
ATOM      7  C8  UNL     1     155.850 157.306 169.977  0.00  0.00    +0.000 A 
ENDROOT
BRANCH   3   8
ATOM      8  N2  UNL     1     156.895 158.868 166.252  0.00  0.00    +0.000 N 
ATOM      9  C9  UNL     1     157.354 158.190 165.092  0.00  0.00    +0.000 A 
ATOM     10  N3  UNL     1     157.525 156.885 164.946  0.00  0.00    +0.000 NA
ATOM     11  C10 UNL     1     157.953 156.235 163.859  0.00  0.00    +0.000 A 
ATOM     12  C11 UNL     1     158.254 157.024 162.753  0.00  0.00    +0.000 A 
ATOM     13  C12 UNL     1     158.094 158.397 162.851  0.00  0.00    +0.000 A 
ATOM     14  N4  UNL     1     157.661 158.944 163.982  0.00  0.00    +0.000 NA
ATOM     15  H8  UNL     1     156.841 159.932 166.143  0.00  0.00    +0.000 HD
BRANCH  11  16
ATOM     16  C13 UNL     1     158.122 154.787 163.782  0.00  0.00    +0.000 A 
ATOM     17  C14 UNL     1     158.831 154.112 164.750  0.00  0.00    +0.000 A 
ATOM     18  N5  UNL     1     159.014 152.757 164.718  0.00  0.00    +0.000 NA
ATOM     19  C15 UNL     1     158.513 151.997 163.737  0.00  0.00    +0.000 A 
ATOM     20  C16 UNL     1     157.798 152.625 162.746  0.00  0.00    +0.000 A 
ATOM     21  C17 UNL     1     157.602 154.016 162.767  0.00  0.00    +0.000 A 
ENDBRANCH  11  16
ENDBRANCH   3   8
BRANCH   1  24
ATOM     22  O1  UNL     1     152.928 159.296 170.215  0.00  0.00    +0.000 OA
ATOM     23  C1  UNL     1     152.605 158.107 169.877  0.00  0.00    +0.000 C 
ATOM     24  N1  UNL     1     153.539 157.219 169.308  0.00  0.00    +0.000 N 
ATOM     25  H1  UNL     1     153.184 156.244 169.064  0.00  0.00    +0.000 HD
BRANCH  23  26
ATOM     26  C18 UNL     1     151.239 157.663 170.085  0.00  0.00    +0.000 A 
ATOM     27  C19 UNL     1     150.192 158.459 169.685  0.00  0.00    +0.000 A 
ATOM     28  C20 UNL     1     148.874 158.088 169.843  0.00  0.00    +0.000 A 
ATOM     29  C21 UNL     1     148.584 156.889 170.415  0.00  0.00    +0.000 A 
ATOM     30  C28 UNL     1     149.602 156.066 170.828  0.00  0.00    +0.000 A 
ATOM     31  C29 UNL     1     150.943 156.460 170.660  0.00  0.00    +0.000 A 
BRANCH  29  32
ATOM     32  C22 UNL     1     147.188 156.458 170.590  0.00  0.00    +0.000 C 
BRANCH  32  33
ATOM     33  N6  UNL     1     146.527 157.333 171.495  0.00  0.00    +0.000 NA
ATOM     34  C23 UNL     1     145.280 157.867 171.065  0.00  0.00    +0.000 C 
ATOM     35  C24 UNL     1     144.085 157.092 171.572  0.00  0.00    +0.000 C 
ATOM     36  N7  UNL     1     144.122 156.996 173.017  0.00  0.00    +0.000 NA
ATOM     37  C25 UNL     1     144.078 158.315 173.621  0.00  0.00    +0.000 C 
ATOM     38  C26 UNL     1     145.324 156.268 173.364  0.00  0.00    +0.000 C 
ATOM     39  C27 UNL     1     146.571 156.918 172.866  0.00  0.00    +0.000 C 
ENDBRANCH  32  33
ENDBRANCH  29  32
ENDBRANCH  23  26
ENDBRANCH   1  24
TORSDOF 6
ENDMDL
MODEL 4
REMARK VINA RESULT:      -7.3      5.283     10.657
REMARK  Name = ./3D_structures\o18_MMV009948_3D.pdb
REMARK  8 active torsions:
REMARK  status: ('A' for Active; 'I' for Inactive)
REMARK    1  A    between atoms: C1_2  and  C18_24
REMARK    2  A    between atoms: N1_3  and  C2_4
REMARK    3  A    between atoms: C4_6  and  N2_11
REMARK    4  A    between atoms: C5_7  and  C6_8
REMARK    5  A    between atoms: C10_14  and  C13_18
REMARK    6  A    between atoms: C21_27  and  C22_28
REMARK    7  A    between atoms: C22_28  and  N6_29
REMARK    8  A    between atoms: N7_32  and  C25_33
REMARK                            x       y       z     vdW  Elec       q    Type
REMARK                         _______ _______ _______ _____ _____    ______ ____
ROOT
ATOM      1  C2  UNL     1     151.057 162.848 166.997  0.00  0.00    +0.000 A 
ATOM      2  C3  UNL     1     150.052 163.834 166.927  0.00  0.00    +0.000 A 
ATOM      3  C4  UNL     1     150.216 164.927 166.117  0.00  0.00    +0.000 A 
ATOM      4  C5  UNL     1     151.381 165.075 165.354  0.00  0.00    +0.000 A 
ATOM      5  C6  UNL     1     151.585 166.249 164.469  0.00  0.00    +0.000 C 
ATOM      6  C7  UNL     1     152.333 164.097 165.449  0.00  0.00    +0.000 A 
ATOM      7  C8  UNL     1     152.187 162.974 166.267  0.00  0.00    +0.000 A 
ENDROOT
BRANCH   3   8
ATOM      8  N2  UNL     1     149.261 165.938 166.012  0.00  0.00    +0.000 N 
ATOM      9  C9  UNL     1     147.845 165.831 165.971  0.00  0.00    +0.000 A 
ATOM     10  N3  UNL     1     147.128 164.719 166.018  0.00  0.00    +0.000 NA
ATOM     11  C10 UNL     1     145.796 164.606 165.984  0.00  0.00    +0.000 A 
ATOM     12  C11 UNL     1     145.082 165.797 165.889  0.00  0.00    +0.000 A 
ATOM     13  C12 UNL     1     145.785 166.992 165.837  0.00  0.00    +0.000 A 
ATOM     14  N4  UNL     1     147.113 166.992 165.876  0.00  0.00    +0.000 NA
ATOM     15  H8  UNL     1     149.625 166.943 165.954  0.00  0.00    +0.000 HD
BRANCH  11  16
ATOM     16  C13 UNL     1     145.078 163.336 166.032  0.00  0.00    +0.000 A 
ATOM     17  C14 UNL     1     144.624 162.744 164.874  0.00  0.00    +0.000 A 
ATOM     18  N5  UNL     1     143.948 161.555 164.872  0.00  0.00    +0.000 NA
ATOM     19  C15 UNL     1     143.684 160.889 166.002  0.00  0.00    +0.000 A 
ATOM     20  C16 UNL     1     144.116 161.440 167.184  0.00  0.00    +0.000 A 
ATOM     21  C17 UNL     1     144.811 162.660 167.200  0.00  0.00    +0.000 A 
ENDBRANCH  11  16
ENDBRANCH   3   8
BRANCH   1  24
ATOM     22  O1  UNL     1     151.737 162.653 169.794  0.00  0.00    +0.000 OA
ATOM     23  C1  UNL     1     151.171 161.678 169.194  0.00  0.00    +0.000 C 
ATOM     24  N1  UNL     1     150.827 161.746 167.830  0.00  0.00    +0.000 N 
ATOM     25  H1  UNL     1     150.365 160.882 167.409  0.00  0.00    +0.000 HD
BRANCH  23  26
ATOM     26  C18 UNL     1     150.877 160.468 169.940  0.00  0.00    +0.000 A 
ATOM     27  C19 UNL     1     150.089 159.492 169.377  0.00  0.00    +0.000 A 
ATOM     28  C20 UNL     1     149.785 158.316 170.027  0.00  0.00    +0.000 A 
ATOM     29  C21 UNL     1     150.278 158.099 171.277  0.00  0.00    +0.000 A 
ATOM     30  C28 UNL     1     151.068 159.050 171.872  0.00  0.00    +0.000 A 
ATOM     31  C29 UNL     1     151.369 160.246 171.194  0.00  0.00    +0.000 A 
BRANCH  29  32
ATOM     32  C22 UNL     1     149.980 156.851 171.996  0.00  0.00    +0.000 C 
BRANCH  32  33
ATOM     33  N6  UNL     1     149.452 155.891 171.090  0.00  0.00    +0.000 NA
ATOM     34  C23 UNL     1     150.239 154.727 170.868  0.00  0.00    +0.000 C 
ATOM     35  C24 UNL     1     149.833 153.550 171.724  0.00  0.00    +0.000 C 
ATOM     36  N7  UNL     1     148.427 153.251 171.536  0.00  0.00    +0.000 NA
ATOM     37  C25 UNL     1     148.157 152.903 170.154  0.00  0.00    +0.000 C 
ATOM     38  C26 UNL     1     147.684 154.416 171.969  0.00  0.00    +0.000 C 
ATOM     39  C27 UNL     1     148.044 155.656 171.223  0.00  0.00    +0.000 C 
ENDBRANCH  32  33
ENDBRANCH  29  32
ENDBRANCH  23  26
ENDBRANCH   1  24
TORSDOF 6
ENDMDL
MODEL 5
REMARK VINA RESULT:      -7.2      6.328      8.648
REMARK  Name = ./3D_structures\o18_MMV009948_3D.pdb
REMARK  8 active torsions:
REMARK  status: ('A' for Active; 'I' for Inactive)
REMARK    1  A    between atoms: C1_2  and  C18_24
REMARK    2  A    between atoms: N1_3  and  C2_4
REMARK    3  A    between atoms: C4_6  and  N2_11
REMARK    4  A    between atoms: C5_7  and  C6_8
REMARK    5  A    between atoms: C10_14  and  C13_18
REMARK    6  A    between atoms: C21_27  and  C22_28
REMARK    7  A    between atoms: C22_28  and  N6_29
REMARK    8  A    between atoms: N7_32  and  C25_33
REMARK                            x       y       z     vdW  Elec       q    Type
REMARK                         _______ _______ _______ _____ _____    ______ ____
ROOT
ATOM      1  C2  UNL     1     157.838 155.767 165.227  0.00  0.00    +0.000 A 
ATOM      2  C3  UNL     1     158.975 154.944 165.115  0.00  0.00    +0.000 A 
ATOM      3  C4  UNL     1     159.393 154.510 163.884  0.00  0.00    +0.000 A 
ATOM      4  C5  UNL     1     158.694 154.881 162.729  0.00  0.00    +0.000 A 
ATOM      5  C6  UNL     1     159.124 154.425 161.383  0.00  0.00    +0.000 C 
ATOM      6  C7  UNL     1     157.595 155.682 162.877  0.00  0.00    +0.000 A 
ATOM      7  C8  UNL     1     157.152 156.135 164.122  0.00  0.00    +0.000 A 
ENDROOT
BRANCH   3   8
ATOM      8  N2  UNL     1     160.506 153.688 163.712  0.00  0.00    +0.000 N 
ATOM      9  C9  UNL     1     161.834 153.870 164.180  0.00  0.00    +0.000 A 
ATOM     10  N3  UNL     1     162.298 154.890 164.887  0.00  0.00    +0.000 NA
ATOM     11  C10 UNL     1     163.544 155.070 165.337  0.00  0.00    +0.000 A 
ATOM     12  C11 UNL     1     164.459 154.069 165.024  0.00  0.00    +0.000 A 
ATOM     13  C12 UNL     1     164.027 152.979 164.285  0.00  0.00    +0.000 A 
ATOM     14  N4  UNL     1     162.762 152.897 163.885  0.00  0.00    +0.000 NA
ATOM     15  H8  UNL     1     160.360 152.787 163.151  0.00  0.00    +0.000 HD
BRANCH  11  16
ATOM     16  C13 UNL     1     163.979 156.231 166.107  0.00  0.00    +0.000 A 
ATOM     17  C14 UNL     1     165.122 156.916 165.757  0.00  0.00    +0.000 A 
ATOM     18  N5  UNL     1     165.566 158.009 166.449  0.00  0.00    +0.000 NA
ATOM     19  C15 UNL     1     164.913 158.484 167.517  0.00  0.00    +0.000 A 
ATOM     20  C16 UNL     1     163.767 157.834 167.906  0.00  0.00    +0.000 A 
ATOM     21  C17 UNL     1     163.301 156.711 167.203  0.00  0.00    +0.000 A 
ENDBRANCH  11  16
ENDBRANCH   3   8
BRANCH   1  24
ATOM     22  O1  UNL     1     158.917 158.032 166.651  0.00  0.00    +0.000 OA
ATOM     23  C1  UNL     1     158.013 157.302 167.182  0.00  0.00    +0.000 C 
ATOM     24  N1  UNL     1     157.467 156.192 166.509  0.00  0.00    +0.000 N 
ATOM     25  H1  UNL     1     156.723 155.634 167.031  0.00  0.00    +0.000 HD
BRANCH  23  26
ATOM     26  C18 UNL     1     157.538 157.627 168.515  0.00  0.00    +0.000 A 
ATOM     27  C19 UNL     1     158.340 158.346 169.369  0.00  0.00    +0.000 A 
ATOM     28  C20 UNL     1     157.941 158.698 170.641  0.00  0.00    +0.000 A 
ATOM     29  C21 UNL     1     156.709 158.326 171.080  0.00  0.00    +0.000 A 
ATOM     30  C28 UNL     1     155.880 157.606 170.256  0.00  0.00    +0.000 A 
ATOM     31  C29 UNL     1     156.302 157.255 168.960  0.00  0.00    +0.000 A 
BRANCH  29  32
ATOM     32  C22 UNL     1     156.249 158.692 172.429  0.00  0.00    +0.000 C 
BRANCH  32  33
ATOM     33  N6  UNL     1     155.767 160.029 172.424  0.00  0.00    +0.000 NA
ATOM     34  C23 UNL     1     154.932 160.399 171.334  0.00  0.00    +0.000 C 
ATOM     35  C24 UNL     1     153.456 160.294 171.640  0.00  0.00    +0.000 C 
ATOM     36  N7  UNL     1     153.127 161.076 172.816  0.00  0.00    +0.000 NA
ATOM     37  C25 UNL     1     153.432 162.478 172.600  0.00  0.00    +0.000 C 
ATOM     38  C26 UNL     1     153.870 160.512 173.922  0.00  0.00    +0.000 C 
ATOM     39  C27 UNL     1     155.346 160.516 173.705  0.00  0.00    +0.000 C 
ENDBRANCH  32  33
ENDBRANCH  29  32
ENDBRANCH  23  26
ENDBRANCH   1  24
TORSDOF 6
ENDMDL
MODEL 6
REMARK VINA RESULT:      -7.2      3.103     11.535
REMARK  Name = ./3D_structures\o18_MMV009948_3D.pdb
REMARK  8 active torsions:
REMARK  status: ('A' for Active; 'I' for Inactive)
REMARK    1  A    between atoms: C1_2  and  C18_24
REMARK    2  A    between atoms: N1_3  and  C2_4
REMARK    3  A    between atoms: C4_6  and  N2_11
REMARK    4  A    between atoms: C5_7  and  C6_8
REMARK    5  A    between atoms: C10_14  and  C13_18
REMARK    6  A    between atoms: C21_27  and  C22_28
REMARK    7  A    between atoms: C22_28  and  N6_29
REMARK    8  A    between atoms: N7_32  and  C25_33
REMARK                            x       y       z     vdW  Elec       q    Type
REMARK                         _______ _______ _______ _____ _____    ______ ____
ROOT
ATOM      1  C2  UNL     1     151.632 163.049 168.952  0.00  0.00    +0.000 A 
ATOM      2  C3  UNL     1     150.966 163.928 168.075  0.00  0.00    +0.000 A 
ATOM      3  C4  UNL     1     150.137 164.900 168.572  0.00  0.00    +0.000 A 
ATOM      4  C5  UNL     1     149.945 165.028 169.952  0.00  0.00    +0.000 A 
ATOM      5  C6  UNL     1     149.052 166.071 170.518  0.00  0.00    +0.000 C 
ATOM      6  C7  UNL     1     150.609 164.156 170.773  0.00  0.00    +0.000 A 
ATOM      7  C8  UNL     1     151.458 163.159 170.288  0.00  0.00    +0.000 A 
ENDROOT
BRANCH   3   8
ATOM      8  N2  UNL     1     149.447 165.793 167.753  0.00  0.00    +0.000 N 
ATOM      9  C9  UNL     1     148.230 165.602 167.046  0.00  0.00    +0.000 A 
ATOM     10  N3  UNL     1     147.489 164.505 167.015  0.00  0.00    +0.000 NA
ATOM     11  C10 UNL     1     146.341 164.314 166.357  0.00  0.00    +0.000 A 
ATOM     12  C11 UNL     1     145.870 165.397 165.620  0.00  0.00    +0.000 A 
ATOM     13  C12 UNL     1     146.608 166.572 165.617  0.00  0.00    +0.000 A 
ATOM     14  N4  UNL     1     147.740 166.655 166.307  0.00  0.00    +0.000 NA
ATOM     15  H8  UNL     1     149.877 166.765 167.627  0.00  0.00    +0.000 HD
BRANCH  11  16
ATOM     16  C13 UNL     1     145.586 163.065 166.368  0.00  0.00    +0.000 A 
ATOM     17  C14 UNL     1     144.837 162.690 165.275  0.00  0.00    +0.000 A 
ATOM     18  N5  UNL     1     144.115 161.528 165.241  0.00  0.00    +0.000 NA
ATOM     19  C15 UNL     1     144.091 160.680 166.275  0.00  0.00    +0.000 A 
ATOM     20  C16 UNL     1     144.822 161.011 167.390  0.00  0.00    +0.000 A 
ATOM     21  C17 UNL     1     145.568 162.200 167.438  0.00  0.00    +0.000 A 
ENDBRANCH  11  16
ENDBRANCH   3   8
BRANCH   1  24
ATOM     22  O1  UNL     1     151.007 160.264 168.538  0.00  0.00    +0.000 OA
ATOM     23  C1  UNL     1     152.146 160.731 168.198  0.00  0.00    +0.000 C 
ATOM     24  N1  UNL     1     152.477 162.087 168.387  0.00  0.00    +0.000 N 
ATOM     25  H1  UNL     1     153.454 162.388 168.082  0.00  0.00    +0.000 HD
BRANCH  23  26
ATOM     26  C18 UNL     1     153.124 159.838 167.602  0.00  0.00    +0.000 A 
ATOM     27  C19 UNL     1     153.601 158.768 168.322  0.00  0.00    +0.000 A 
ATOM     28  C20 UNL     1     154.518 157.878 167.808  0.00  0.00    +0.000 A 
ATOM     29  C21 UNL     1     154.979 158.053 166.540  0.00  0.00    +0.000 A 
ATOM     30  C28 UNL     1     154.527 159.110 165.791  0.00  0.00    +0.000 A 
ATOM     31  C29 UNL     1     153.590 160.011 166.330  0.00  0.00    +0.000 A 
BRANCH  29  32
ATOM     32  C22 UNL     1     155.953 157.116 165.959  0.00  0.00    +0.000 C 
BRANCH  32  33
ATOM     33  N6  UNL     1     157.055 157.839 165.427  0.00  0.00    +0.000 NA
ATOM     34  C23 UNL     1     157.897 158.494 166.368  0.00  0.00    +0.000 C 
ATOM     35  C24 UNL     1     159.121 157.692 166.745  0.00  0.00    +0.000 C 
ATOM     36  N7  UNL     1     159.873 157.332 165.559  0.00  0.00    +0.000 NA
ATOM     37  C25 UNL     1     160.325 158.519 164.859  0.00  0.00    +0.000 C 
ATOM     38  C26 UNL     1     159.011 156.503 164.745  0.00  0.00    +0.000 C 
ATOM     39  C27 UNL     1     157.740 157.179 164.355  0.00  0.00    +0.000 C 
ENDBRANCH  32  33
ENDBRANCH  29  32
ENDBRANCH  23  26
ENDBRANCH   1  24
TORSDOF 6
ENDMDL
MODEL 7
REMARK VINA RESULT:      -7.1      6.969      9.779
REMARK  Name = ./3D_structures\o18_MMV009948_3D.pdb
REMARK  8 active torsions:
REMARK  status: ('A' for Active; 'I' for Inactive)
REMARK    1  A    between atoms: C1_2  and  C18_24
REMARK    2  A    between atoms: N1_3  and  C2_4
REMARK    3  A    between atoms: C4_6  and  N2_11
REMARK    4  A    between atoms: C5_7  and  C6_8
REMARK    5  A    between atoms: C10_14  and  C13_18
REMARK    6  A    between atoms: C21_27  and  C22_28
REMARK    7  A    between atoms: C22_28  and  N6_29
REMARK    8  A    between atoms: N7_32  and  C25_33
REMARK                            x       y       z     vdW  Elec       q    Type
REMARK                         _______ _______ _______ _____ _____    ______ ____
ROOT
ATOM      1  C2  UNL     1     158.409 155.311 164.731  0.00  0.00    +0.000 A 
ATOM      2  C3  UNL     1     157.591 154.237 164.327  0.00  0.00    +0.000 A 
ATOM      3  C4  UNL     1     157.754 153.675 163.089  0.00  0.00    +0.000 A 
ATOM      4  C5  UNL     1     158.732 154.161 162.213  0.00  0.00    +0.000 A 
ATOM      5  C6  UNL     1     158.930 153.572 160.865  0.00  0.00    +0.000 C 
ATOM      6  C7  UNL     1     159.508 155.205 162.640  0.00  0.00    +0.000 A 
ATOM      7  C8  UNL     1     159.359 155.792 163.899  0.00  0.00    +0.000 A 
ENDROOT
BRANCH   3   8
ATOM      8  N2  UNL     1     156.969 152.616 162.632  0.00  0.00    +0.000 N 
ATOM      9  C9  UNL     1     157.111 151.225 162.880  0.00  0.00    +0.000 A 
ATOM     10  N3  UNL     1     158.047 150.636 163.609  0.00  0.00    +0.000 NA
ATOM     11  C10 UNL     1     158.188 149.329 163.853  0.00  0.00    +0.000 A 
ATOM     12  C11 UNL     1     157.240 148.491 163.273  0.00  0.00    +0.000 A 
ATOM     13  C12 UNL     1     156.237 149.056 162.499  0.00  0.00    +0.000 A 
ATOM     14  N4  UNL     1     156.189 150.372 162.319  0.00  0.00    +0.000 NA
ATOM     15  H8  UNL     1     156.137 152.865 162.006  0.00  0.00    +0.000 HD
BRANCH  11  16
ATOM     16  C13 UNL     1     159.258 148.757 164.664  0.00  0.00    +0.000 A 
ATOM     17  C14 UNL     1     159.841 149.490 165.674  0.00  0.00    +0.000 A 
ATOM     18  N5  UNL     1     160.845 148.994 166.459  0.00  0.00    +0.000 NA
ATOM     19  C15 UNL     1     161.328 147.757 166.292  0.00  0.00    +0.000 A 
ATOM     20  C16 UNL     1     160.780 146.986 165.296  0.00  0.00    +0.000 A 
ATOM     21  C17 UNL     1     159.748 147.483 164.484  0.00  0.00    +0.000 A 
ENDBRANCH  11  16
ENDBRANCH   3   8
BRANCH   1  24
ATOM     22  O1  UNL     1     156.629 157.470 165.430  0.00  0.00    +0.000 OA
ATOM     23  C1  UNL     1     157.331 156.891 166.327  0.00  0.00    +0.000 C 
ATOM     24  N1  UNL     1     158.207 155.834 166.014  0.00  0.00    +0.000 N 
ATOM     25  H1  UNL     1     158.761 155.415 166.823  0.00  0.00    +0.000 HD
BRANCH  23  26
ATOM     26  C18 UNL     1     157.222 157.338 167.703  0.00  0.00    +0.000 A 
ATOM     27  C19 UNL     1     158.253 158.045 168.276  0.00  0.00    +0.000 A 
ATOM     28  C20 UNL     1     158.205 158.508 169.573  0.00  0.00    +0.000 A 
ATOM     29  C21 UNL     1     157.099 158.264 170.327  0.00  0.00    +0.000 A 
ATOM     30  C28 UNL     1     156.050 157.561 169.791  0.00  0.00    +0.000 A 
ATOM     31  C29 UNL     1     156.115 157.095 168.464  0.00  0.00    +0.000 A 
BRANCH  29  32
ATOM     32  C22 UNL     1     157.012 158.752 171.713  0.00  0.00    +0.000 C 
BRANCH  32  33
ATOM     33  N6  UNL     1     156.211 159.926 171.758  0.00  0.00    +0.000 NA
ATOM     34  C23 UNL     1     154.994 159.836 172.488  0.00  0.00    +0.000 C 
ATOM     35  C24 UNL     1     155.102 160.340 173.909  0.00  0.00    +0.000 C 
ATOM     36  N7  UNL     1     155.601 161.701 173.924  0.00  0.00    +0.000 NA
ATOM     37  C25 UNL     1     154.698 162.586 173.212  0.00  0.00    +0.000 C 
ATOM     38  C26 UNL     1     156.925 161.674 173.341  0.00  0.00    +0.000 C 
ATOM     39  C27 UNL     1     156.946 161.141 171.948  0.00  0.00    +0.000 C 
ENDBRANCH  32  33
ENDBRANCH  29  32
ENDBRANCH  23  26
ENDBRANCH   1  24
TORSDOF 6
ENDMDL
MODEL 8
REMARK VINA RESULT:      -7.1      5.896     11.815
REMARK  Name = ./3D_structures\o18_MMV009948_3D.pdb
REMARK  8 active torsions:
REMARK  status: ('A' for Active; 'I' for Inactive)
REMARK    1  A    between atoms: C1_2  and  C18_24
REMARK    2  A    between atoms: N1_3  and  C2_4
REMARK    3  A    between atoms: C4_6  and  N2_11
REMARK    4  A    between atoms: C5_7  and  C6_8
REMARK    5  A    between atoms: C10_14  and  C13_18
REMARK    6  A    between atoms: C21_27  and  C22_28
REMARK    7  A    between atoms: C22_28  and  N6_29
REMARK    8  A    between atoms: N7_32  and  C25_33
REMARK                            x       y       z     vdW  Elec       q    Type
REMARK                         _______ _______ _______ _____ _____    ______ ____
ROOT
ATOM      1  C2  UNL     1     157.932 155.859 164.944  0.00  0.00    +0.000 A 
ATOM      2  C3  UNL     1     157.403 156.060 166.234  0.00  0.00    +0.000 A 
ATOM      3  C4  UNL     1     157.850 157.098 167.008  0.00  0.00    +0.000 A 
ATOM      4  C5  UNL     1     158.836 157.968 166.525  0.00  0.00    +0.000 A 
ATOM      5  C6  UNL     1     159.339 159.100 167.342  0.00  0.00    +0.000 C 
ATOM      6  C7  UNL     1     159.326 157.741 165.267  0.00  0.00    +0.000 A 
ATOM      7  C8  UNL     1     158.884 156.689 164.461  0.00  0.00    +0.000 A 
ENDROOT
BRANCH   3   8
ATOM      8  N2  UNL     1     157.369 157.342 168.294  0.00  0.00    +0.000 N 
ATOM      9  C9  UNL     1     156.217 158.068 168.696  0.00  0.00    +0.000 A 
ATOM     10  N3  UNL     1     155.347 158.684 167.910  0.00  0.00    +0.000 NA
ATOM     11  C10 UNL     1     154.258 159.367 168.276  0.00  0.00    +0.000 A 
ATOM     12  C11 UNL     1     154.010 159.437 169.644  0.00  0.00    +0.000 A 
ATOM     13  C12 UNL     1     154.889 158.810 170.513  0.00  0.00    +0.000 A 
ATOM     14  N4  UNL     1     155.947 158.156 170.042  0.00  0.00    +0.000 NA
ATOM     15  H8  UNL     1     157.933 156.931 169.107  0.00  0.00    +0.000 HD
BRANCH  11  16
ATOM     16  C13 UNL     1     153.351 160.027 167.342  0.00  0.00    +0.000 A 
ATOM     17  C14 UNL     1     152.241 160.701 167.802  0.00  0.00    +0.000 A 
ATOM     18  N5  UNL     1     151.365 161.334 166.964  0.00  0.00    +0.000 NA
ATOM     19  C15 UNL     1     151.532 161.336 165.636  0.00  0.00    +0.000 A 
ATOM     20  C16 UNL     1     152.624 160.675 165.128  0.00  0.00    +0.000 A 
ATOM     21  C17 UNL     1     153.531 160.022 165.978  0.00  0.00    +0.000 A 
ENDBRANCH  11  16
ENDBRANCH   3   8
BRANCH   1  24
ATOM     22  O1  UNL     1     158.997 153.179 164.859  0.00  0.00    +0.000 OA
ATOM     23  C1  UNL     1     157.967 153.491 164.169  0.00  0.00    +0.000 C 
ATOM     24  N1  UNL     1     157.426 154.791 164.194  0.00  0.00    +0.000 N 
ATOM     25  H1  UNL     1     156.570 154.964 163.581  0.00  0.00    +0.000 HD
BRANCH  23  26
ATOM     26  C18 UNL     1     157.342 152.477 163.340  0.00  0.00    +0.000 A 
ATOM     27  C19 UNL     1     157.803 152.258 162.064  0.00  0.00    +0.000 A 
ATOM     28  C20 UNL     1     157.260 151.301 161.233  0.00  0.00    +0.000 A 
ATOM     29  C21 UNL     1     156.228 150.537 161.681  0.00  0.00    +0.000 A 
ATOM     30  C28 UNL     1     155.740 150.727 162.949  0.00  0.00    +0.000 A 
ATOM     31  C29 UNL     1     156.305 151.708 163.786  0.00  0.00    +0.000 A 
BRANCH  29  32
ATOM     32  C22 UNL     1     155.632 149.502 160.823  0.00  0.00    +0.000 C 
BRANCH  32  33
ATOM     33  N6  UNL     1     154.326 149.900 160.428  0.00  0.00    +0.000 NA
ATOM     34  C23 UNL     1     154.229 150.659 159.229  0.00  0.00    +0.000 C 
ATOM     35  C24 UNL     1     153.906 149.824 158.010  0.00  0.00    +0.000 C 
ATOM     36  N7  UNL     1     152.691 149.064 158.227  0.00  0.00    +0.000 NA
ATOM     37  C25 UNL     1     151.567 149.951 158.462  0.00  0.00    +0.000 C 
ATOM     38  C26 UNL     1     152.939 148.176 159.343  0.00  0.00    +0.000 C 
ATOM     39  C27 UNL     1     153.320 148.893 160.594  0.00  0.00    +0.000 C 
ENDBRANCH  32  33
ENDBRANCH  29  32
ENDBRANCH  23  26
ENDBRANCH   1  24
TORSDOF 6
ENDMDL
MODEL 9
REMARK VINA RESULT:      -7.1      3.949     11.421
REMARK  Name = ./3D_structures\o18_MMV009948_3D.pdb
REMARK  8 active torsions:
REMARK  status: ('A' for Active; 'I' for Inactive)
REMARK    1  A    between atoms: C1_2  and  C18_24
REMARK    2  A    between atoms: N1_3  and  C2_4
REMARK    3  A    between atoms: C4_6  and  N2_11
REMARK    4  A    between atoms: C5_7  and  C6_8
REMARK    5  A    between atoms: C10_14  and  C13_18
REMARK    6  A    between atoms: C21_27  and  C22_28
REMARK    7  A    between atoms: C22_28  and  N6_29
REMARK    8  A    between atoms: N7_32  and  C25_33
REMARK                            x       y       z     vdW  Elec       q    Type
REMARK                         _______ _______ _______ _____ _____    ______ ____
ROOT
ATOM      1  C2  UNL     1     156.546 158.203 169.968  0.00  0.00    +0.000 A 
ATOM      2  C3  UNL     1     155.218 158.659 170.084  0.00  0.00    +0.000 A 
ATOM      3  C4  UNL     1     154.832 159.382 171.181  0.00  0.00    +0.000 A 
ATOM      4  C5  UNL     1     155.752 159.673 172.197  0.00  0.00    +0.000 A 
ATOM      5  C6  UNL     1     155.361 160.453 173.397  0.00  0.00    +0.000 C 
ATOM      6  C7  UNL     1     157.032 159.213 172.049  0.00  0.00    +0.000 A 
ATOM      7  C8  UNL     1     157.447 158.475 170.938  0.00  0.00    +0.000 A 
ENDROOT
BRANCH   3   8
ATOM      8  N2  UNL     1     153.531 159.854 171.354  0.00  0.00    +0.000 N 
ATOM      9  C9  UNL     1     152.705 160.558 170.439  0.00  0.00    +0.000 A 
ATOM     10  N3  UNL     1     153.015 160.927 169.205  0.00  0.00    +0.000 NA
ATOM     11  C10 UNL     1     152.245 161.586 168.333  0.00  0.00    +0.000 A 
ATOM     12  C11 UNL     1     150.970 161.923 168.776  0.00  0.00    +0.000 A 
ATOM     13  C12 UNL     1     150.593 161.562 170.060  0.00  0.00    +0.000 A 
ATOM     14  N4  UNL     1     151.439 160.907 170.849  0.00  0.00    +0.000 NA
ATOM     15  H8  UNL     1     153.072 159.668 172.304  0.00  0.00    +0.000 HD
BRANCH  11  16
ATOM     16  C13 UNL     1     152.667 161.963 166.988  0.00  0.00    +0.000 A 
ATOM     17  C14 UNL     1     153.815 162.699 166.794  0.00  0.00    +0.000 A 
ATOM     18  N5  UNL     1     154.248 163.075 165.552  0.00  0.00    +0.000 NA
ATOM     19  C15 UNL     1     153.578 162.748 164.440  0.00  0.00    +0.000 A 
ATOM     20  C16 UNL     1     152.425 162.014 164.582  0.00  0.00    +0.000 A 
ATOM     21  C17 UNL     1     151.970 161.622 165.851  0.00  0.00    +0.000 A 
ENDBRANCH  11  16
ENDBRANCH   3   8
BRANCH   1  24
ATOM     22  O1  UNL     1     157.884 159.248 167.635  0.00  0.00    +0.000 OA
ATOM     23  C1  UNL     1     157.539 158.019 167.690  0.00  0.00    +0.000 C 
ATOM     24  N1  UNL     1     156.886 157.482 168.816  0.00  0.00    +0.000 N 
ATOM     25  H1  UNL     1     156.628 156.449 168.772  0.00  0.00    +0.000 HD
BRANCH  23  26
ATOM     26  C18 UNL     1     157.829 157.156 166.559  0.00  0.00    +0.000 A 
ATOM     27  C19 UNL     1     156.814 156.439 165.970  0.00  0.00    +0.000 A 
ATOM     28  C20 UNL     1     157.022 155.613 164.886  0.00  0.00    +0.000 A 
ATOM     29  C21 UNL     1     158.275 155.495 164.369  0.00  0.00    +0.000 A 
ATOM     30  C28 UNL     1     159.313 156.194 164.931  0.00  0.00    +0.000 A 
ATOM     31  C29 UNL     1     159.084 157.033 166.038  0.00  0.00    +0.000 A 
BRANCH  29  32
ATOM     32  C22 UNL     1     158.529 154.628 163.207  0.00  0.00    +0.000 C 
BRANCH  32  33
ATOM     33  N6  UNL     1     158.008 153.329 163.455  0.00  0.00    +0.000 NA
ATOM     34  C23 UNL     1     157.378 152.677 162.359  0.00  0.00    +0.000 C 
ATOM     35  C24 UNL     1     158.291 151.731 161.613  0.00  0.00    +0.000 C 
ATOM     36  N7  UNL     1     158.858 150.755 162.523  0.00  0.00    +0.000 NA
ATOM     37  C25 UNL     1     157.812 149.961 163.140  0.00  0.00    +0.000 C 
ATOM     38  C26 UNL     1     159.644 151.486 163.494  0.00  0.00    +0.000 C 
ATOM     39  C27 UNL     1     158.851 152.492 164.258  0.00  0.00    +0.000 C 
ENDBRANCH  32  33
ENDBRANCH  29  32
ENDBRANCH  23  26
ENDBRANCH   1  24
TORSDOF 6
ENDMDL
