MODEL 1
REMARK VINA RESULT:      -5.6      0.000      0.000
REMARK  Name = ./3D_structures\o19_MMV1174026_3D.pdb
REMARK  7 active torsions:
REMARK  status: ('A' for Active; 'I' for Inactive)
REMARK    1  A    between atoms: O1_1  and  C1_2
REMARK    2  A    between atoms: O1_1  and  C7_9
REMARK    3  A    between atoms: C4_5  and  N1_6
REMARK    4  A    between atoms: C10_12  and  C11_13
REMARK    5  A    between atoms: C11_13  and  C12_14
REMARK    6  A    between atoms: C11_13  and  C13_15
REMARK    7  A    between atoms: C11_13  and  C14_16
REMARK                            x       y       z     vdW  Elec       q    Type
REMARK                         _______ _______ _______ _____ _____    ______ ____
ROOT
ATOM      1  O1  UNL     1     161.258 147.854 169.635  0.00  0.00    +0.000 OA
ENDROOT
BRANCH   1   2
ATOM      2  C1  UNL     1     161.154 146.889 170.581  0.00  0.00    +0.000 A 
ATOM      3  C2  UNL     1     160.153 145.938 170.495  0.00  0.00    +0.000 A 
ATOM      4  C3  UNL     1     160.075 144.963 171.460  0.00  0.00    +0.000 A 
ATOM      5  C4  UNL     1     160.948 144.873 172.530  0.00  0.00    +0.000 A 
ATOM      6  C5  UNL     1     161.937 145.857 172.574  0.00  0.00    +0.000 A 
ATOM      7  C6  UNL     1     162.065 146.854 171.641  0.00  0.00    +0.000 A 
BRANCH   5   8
ATOM      8  N1  UNL     1     160.860 143.854 173.519  0.00  0.00    +0.000 N 
ATOM      9  H3  UNL     1     160.389 144.002 174.414  0.00  0.00    +0.000 HD
ATOM     10  H4  UNL     1     161.300 142.938 173.306  0.00  0.00    +0.000 HD
ENDBRANCH   5   8
ENDBRANCH   1   2
BRANCH   1  11
ATOM     11  C7  UNL     1     162.374 148.487 169.135  0.00  0.00    +0.000 A 
ATOM     12  C8  UNL     1     162.754 149.772 169.430  0.00  0.00    +0.000 A 
ATOM     13  C9  UNL     1     163.895 150.344 168.879  0.00  0.00    +0.000 A 
ATOM     14  C10 UNL     1     164.700 149.615 167.995  0.00  0.00    +0.000 A 
ATOM     15  C15 UNL     1     164.320 148.332 167.702  0.00  0.00    +0.000 A 
ATOM     16  C16 UNL     1     163.190 147.767 168.250  0.00  0.00    +0.000 A 
BRANCH  14  17
ATOM     17  C11 UNL     1     165.924 150.237 167.403  0.00  0.00    +0.000 C 
ATOM     18  C12 UNL     1     166.935 149.182 166.994  0.00  0.00    +0.000 C 
ATOM     19  C13 UNL     1     166.615 151.169 168.364  0.00  0.00    +0.000 C 
ATOM     20  C14 UNL     1     165.579 151.040 166.164  0.00  0.00    +0.000 C 
ENDBRANCH  14  17
ENDBRANCH   1  11
TORSDOF 4
ENDMDL
MODEL 2
REMARK VINA RESULT:      -5.5     11.360     12.872
REMARK  Name = ./3D_structures\o19_MMV1174026_3D.pdb
REMARK  7 active torsions:
REMARK  status: ('A' for Active; 'I' for Inactive)
REMARK    1  A    between atoms: O1_1  and  C1_2
REMARK    2  A    between atoms: O1_1  and  C7_9
REMARK    3  A    between atoms: C4_5  and  N1_6
REMARK    4  A    between atoms: C10_12  and  C11_13
REMARK    5  A    between atoms: C11_13  and  C12_14
REMARK    6  A    between atoms: C11_13  and  C13_15
REMARK    7  A    between atoms: C11_13  and  C14_16
REMARK                            x       y       z     vdW  Elec       q    Type
REMARK                         _______ _______ _______ _____ _____    ______ ____
ROOT
ATOM      1  O1  UNL     1     158.076 158.403 170.907  0.00  0.00    +0.000 OA
ENDROOT
BRANCH   1   2
ATOM      2  C1  UNL     1     157.271 159.285 171.550  0.00  0.00    +0.000 A 
ATOM      3  C2  UNL     1     156.321 158.830 172.446  0.00  0.00    +0.000 A 
ATOM      4  C3  UNL     1     155.525 159.742 173.095  0.00  0.00    +0.000 A 
ATOM      5  C4  UNL     1     155.615 161.109 172.903  0.00  0.00    +0.000 A 
ATOM      6  C5  UNL     1     156.586 161.518 171.987  0.00  0.00    +0.000 A 
ATOM      7  C6  UNL     1     157.409 160.655 171.310  0.00  0.00    +0.000 A 
BRANCH   5   8
ATOM      8  N1  UNL     1     154.789 162.045 173.587  0.00  0.00    +0.000 N 
ATOM      9  H3  UNL     1     154.521 161.921 174.565  0.00  0.00    +0.000 HD
ATOM     10  H4  UNL     1     154.454 162.871 173.053  0.00  0.00    +0.000 HD
ENDBRANCH   5   8
ENDBRANCH   1   2
BRANCH   1  11
ATOM     11  C7  UNL     1     158.145 158.082 169.569  0.00  0.00    +0.000 A 
ATOM     12  C8  UNL     1     159.169 158.428 168.724  0.00  0.00    +0.000 A 
ATOM     13  C9  UNL     1     159.165 158.069 167.381  0.00  0.00    +0.000 A 
ATOM     14  C10 UNL     1     158.099 157.335 166.845  0.00  0.00    +0.000 A 
ATOM     15  C15 UNL     1     157.078 156.990 167.690  0.00  0.00    +0.000 A 
ATOM     16  C16 UNL     1     157.085 157.345 169.020  0.00  0.00    +0.000 A 
BRANCH  14  17
ATOM     17  C11 UNL     1     158.097 156.955 165.398  0.00  0.00    +0.000 C 
ATOM     18  C12 UNL     1     157.741 158.139 164.519  0.00  0.00    +0.000 C 
ATOM     19  C13 UNL     1     157.108 155.860 165.095  0.00  0.00    +0.000 C 
ATOM     20  C14 UNL     1     159.464 156.462 164.966  0.00  0.00    +0.000 C 
ENDBRANCH  14  17
ENDBRANCH   1  11
TORSDOF 4
ENDMDL
MODEL 3
REMARK VINA RESULT:      -5.5     11.394     12.899
REMARK  Name = ./3D_structures\o19_MMV1174026_3D.pdb
REMARK  7 active torsions:
REMARK  status: ('A' for Active; 'I' for Inactive)
REMARK    1  A    between atoms: O1_1  and  C1_2
REMARK    2  A    between atoms: O1_1  and  C7_9
REMARK    3  A    between atoms: C4_5  and  N1_6
REMARK    4  A    between atoms: C10_12  and  C11_13
REMARK    5  A    between atoms: C11_13  and  C12_14
REMARK    6  A    between atoms: C11_13  and  C13_15
REMARK    7  A    between atoms: C11_13  and  C14_16
REMARK                            x       y       z     vdW  Elec       q    Type
REMARK                         _______ _______ _______ _____ _____    ______ ____
ROOT
ATOM      1  O1  UNL     1     158.024 158.406 170.982  0.00  0.00    +0.000 OA
ENDROOT
BRANCH   1   2
ATOM      2  C1  UNL     1     157.233 159.303 171.620  0.00  0.00    +0.000 A 
ATOM      3  C2  UNL     1     157.383 160.656 171.376  0.00  0.00    +0.000 A 
ATOM      4  C3  UNL     1     156.561 161.546 172.026  0.00  0.00    +0.000 A 
ATOM      5  C4  UNL     1     155.579 161.165 172.923  0.00  0.00    +0.000 A 
ATOM      6  C5  UNL     1     155.470 159.790 173.137  0.00  0.00    +0.000 A 
ATOM      7  C6  UNL     1     156.260 158.856 172.519  0.00  0.00    +0.000 A 
BRANCH   5   8
ATOM      8  N1  UNL     1     154.730 162.097 173.584  0.00  0.00    +0.000 N 
ATOM      9  H3  UNL     1     155.044 163.037 173.835  0.00  0.00    +0.000 HD
ATOM     10  H4  UNL     1     153.765 161.789 173.813  0.00  0.00    +0.000 HD
ENDBRANCH   5   8
ENDBRANCH   1   2
BRANCH   1  11
ATOM     11  C7  UNL     1     158.103 158.088 169.644  0.00  0.00    +0.000 A 
ATOM     12  C8  UNL     1     159.128 158.446 168.805  0.00  0.00    +0.000 A 
ATOM     13  C9  UNL     1     159.133 158.091 167.461  0.00  0.00    +0.000 A 
ATOM     14  C10 UNL     1     158.077 157.349 166.918  0.00  0.00    +0.000 A 
ATOM     15  C15 UNL     1     157.056 156.991 167.757  0.00  0.00    +0.000 A 
ATOM     16  C16 UNL     1     157.053 157.343 169.089  0.00  0.00    +0.000 A 
BRANCH  14  17
ATOM     17  C11 UNL     1     158.086 156.973 165.470  0.00  0.00    +0.000 C 
ATOM     18  C12 UNL     1     157.030 155.927 165.166  0.00  0.00    +0.000 C 
ATOM     19  C13 UNL     1     159.412 156.407 165.034  0.00  0.00    +0.000 C 
ATOM     20  C14 UNL     1     157.799 158.178 164.596  0.00  0.00    +0.000 C 
ENDBRANCH  14  17
ENDBRANCH   1  11
TORSDOF 4
ENDMDL
MODEL 4
REMARK VINA RESULT:      -5.1     11.531     13.538
REMARK  Name = ./3D_structures\o19_MMV1174026_3D.pdb
REMARK  7 active torsions:
REMARK  status: ('A' for Active; 'I' for Inactive)
REMARK    1  A    between atoms: O1_1  and  C1_2
REMARK    2  A    between atoms: O1_1  and  C7_9
REMARK    3  A    between atoms: C4_5  and  N1_6
REMARK    4  A    between atoms: C10_12  and  C11_13
REMARK    5  A    between atoms: C11_13  and  C12_14
REMARK    6  A    between atoms: C11_13  and  C13_15
REMARK    7  A    between atoms: C11_13  and  C14_16
REMARK                            x       y       z     vdW  Elec       q    Type
REMARK                         _______ _______ _______ _____ _____    ______ ____
ROOT
ATOM      1  O1  UNL     1     158.767 158.593 168.146  0.00  0.00    +0.000 OA
ENDROOT
BRANCH   1   2
ATOM      2  C1  UNL     1     158.335 157.749 167.177  0.00  0.00    +0.000 A 
ATOM      3  C2  UNL     1     157.006 157.370 167.131  0.00  0.00    +0.000 A 
ATOM      4  C3  UNL     1     156.588 156.523 166.133  0.00  0.00    +0.000 A 
ATOM      5  C4  UNL     1     157.430 156.016 165.158  0.00  0.00    +0.000 A 
ATOM      6  C5  UNL     1     158.761 156.425 165.251  0.00  0.00    +0.000 A 
ATOM      7  C6  UNL     1     159.235 157.268 166.223  0.00  0.00    +0.000 A 
BRANCH   5   8
ATOM      8  N1  UNL     1     156.983 155.144 164.126  0.00  0.00    +0.000 N 
ATOM      9  H3  UNL     1     156.076 154.674 164.164  0.00  0.00    +0.000 HD
ATOM     10  H4  UNL     1     157.617 154.992 163.317  0.00  0.00    +0.000 HD
ENDBRANCH   5   8
ENDBRANCH   1   2
BRANCH   1  11
ATOM     11  C7  UNL     1     158.078 159.168 169.192  0.00  0.00    +0.000 A 
ATOM     12  C8  UNL     1     157.457 160.391 169.153  0.00  0.00    +0.000 A 
ATOM     13  C9  UNL     1     156.784 160.906 170.255  0.00  0.00    +0.000 A 
ATOM     14  C10 UNL     1     156.721 160.182 171.452  0.00  0.00    +0.000 A 
ATOM     15  C15 UNL     1     157.340 158.961 171.489  0.00  0.00    +0.000 A 
ATOM     16  C16 UNL     1     158.006 158.452 170.395  0.00  0.00    +0.000 A 
BRANCH  14  17
ATOM     17  C11 UNL     1     155.999 160.744 172.636  0.00  0.00    +0.000 C 
ATOM     18  C12 UNL     1     155.536 159.643 173.571  0.00  0.00    +0.000 C 
ATOM     19  C13 UNL     1     154.779 161.535 172.239  0.00  0.00    +0.000 C 
ATOM     20  C14 UNL     1     156.899 161.669 173.431  0.00  0.00    +0.000 C 
ENDBRANCH  14  17
ENDBRANCH   1  11
TORSDOF 4
ENDMDL
MODEL 5
REMARK VINA RESULT:      -5.1      9.866     11.860
REMARK  Name = ./3D_structures\o19_MMV1174026_3D.pdb
REMARK  7 active torsions:
REMARK  status: ('A' for Active; 'I' for Inactive)
REMARK    1  A    between atoms: O1_1  and  C1_2
REMARK    2  A    between atoms: O1_1  and  C7_9
REMARK    3  A    between atoms: C4_5  and  N1_6
REMARK    4  A    between atoms: C10_12  and  C11_13
REMARK    5  A    between atoms: C11_13  and  C12_14
REMARK    6  A    between atoms: C11_13  and  C13_15
REMARK    7  A    between atoms: C11_13  and  C14_16
REMARK                            x       y       z     vdW  Elec       q    Type
REMARK                         _______ _______ _______ _____ _____    ______ ____
ROOT
ATOM      1  O1  UNL     1     158.998 156.525 164.976  0.00  0.00    +0.000 OA
ENDROOT
BRANCH   1   2
ATOM      2  C1  UNL     1     158.584 155.477 164.222  0.00  0.00    +0.000 A 
ATOM      3  C2  UNL     1     157.856 155.698 163.067  0.00  0.00    +0.000 A 
ATOM      4  C3  UNL     1     157.458 154.621 162.312  0.00  0.00    +0.000 A 
ATOM      5  C4  UNL     1     157.743 153.308 162.643  0.00  0.00    +0.000 A 
ATOM      6  C5  UNL     1     158.476 153.137 163.818  0.00  0.00    +0.000 A 
ATOM      7  C6  UNL     1     158.901 154.173 164.611  0.00  0.00    +0.000 A 
BRANCH   5   8
ATOM      8  N1  UNL     1     157.330 152.202 161.849  0.00  0.00    +0.000 N 
ATOM      9  H3  UNL     1     156.982 152.316 160.895  0.00  0.00    +0.000 HD
ATOM     10  H4  UNL     1     157.389 151.256 162.275  0.00  0.00    +0.000 HD
ENDBRANCH   5   8
ENDBRANCH   1   2
BRANCH   1  11
ATOM     11  C7  UNL     1     158.522 156.990 166.182  0.00  0.00    +0.000 A 
ATOM     12  C8  UNL     1     159.182 157.861 167.011  0.00  0.00    +0.000 A 
ATOM     13  C9  UNL     1     158.636 158.282 168.218  0.00  0.00    +0.000 A 
ATOM     14  C10 UNL     1     157.379 157.820 168.628  0.00  0.00    +0.000 A 
ATOM     15  C15 UNL     1     156.721 156.951 167.800  0.00  0.00    +0.000 A 
ATOM     16  C16 UNL     1     157.263 156.537 166.603  0.00  0.00    +0.000 A 
BRANCH  14  17
ATOM     17  C11 UNL     1     156.798 158.273 169.931  0.00  0.00    +0.000 C 
ATOM     18  C12 UNL     1     155.955 159.521 169.752  0.00  0.00    +0.000 C 
ATOM     19  C13 UNL     1     157.860 158.593 170.950  0.00  0.00    +0.000 C 
ATOM     20  C14 UNL     1     155.906 157.202 170.527  0.00  0.00    +0.000 C 
ENDBRANCH  14  17
ENDBRANCH   1  11
TORSDOF 4
ENDMDL
MODEL 6
REMARK VINA RESULT:      -5.1     10.574     11.370
REMARK  Name = ./3D_structures\o19_MMV1174026_3D.pdb
REMARK  7 active torsions:
REMARK  status: ('A' for Active; 'I' for Inactive)
REMARK    1  A    between atoms: O1_1  and  C1_2
REMARK    2  A    between atoms: O1_1  and  C7_9
REMARK    3  A    between atoms: C4_5  and  N1_6
REMARK    4  A    between atoms: C10_12  and  C11_13
REMARK    5  A    between atoms: C11_13  and  C12_14
REMARK    6  A    between atoms: C11_13  and  C13_15
REMARK    7  A    between atoms: C11_13  and  C14_16
REMARK                            x       y       z     vdW  Elec       q    Type
REMARK                         _______ _______ _______ _____ _____    ______ ____
ROOT
ATOM      1  O1  UNL     1     161.278 158.676 166.584  0.00  0.00    +0.000 OA
ENDROOT
BRANCH   1   2
ATOM      2  C1  UNL     1     160.072 158.291 167.068  0.00  0.00    +0.000 A 
ATOM      3  C2  UNL     1     159.214 157.548 166.279  0.00  0.00    +0.000 A 
ATOM      4  C3  UNL     1     158.001 157.158 166.795  0.00  0.00    +0.000 A 
ATOM      5  C4  UNL     1     157.579 157.471 168.075  0.00  0.00    +0.000 A 
ATOM      6  C5  UNL     1     158.479 158.225 168.830  0.00  0.00    +0.000 A 
ATOM      7  C6  UNL     1     159.701 158.641 168.369  0.00  0.00    +0.000 A 
BRANCH   5   8
ATOM      8  N1  UNL     1     156.323 157.056 168.600  0.00  0.00    +0.000 N 
ATOM      9  H3  UNL     1     155.688 156.450 168.076  0.00  0.00    +0.000 HD
ATOM     10  H4  UNL     1     156.062 157.394 169.547  0.00  0.00    +0.000 HD
ENDBRANCH   5   8
ENDBRANCH   1   2
BRANCH   1  11
ATOM     11  C7  UNL     1     162.490 158.807 167.227  0.00  0.00    +0.000 A 
ATOM     12  C8  UNL     1     163.289 157.767 167.629  0.00  0.00    +0.000 A 
ATOM     13  C9  UNL     1     164.499 157.981 168.279  0.00  0.00    +0.000 A 
ATOM     14  C10 UNL     1     164.943 159.282 168.545  0.00  0.00    +0.000 A 
ATOM     15  C15 UNL     1     164.145 160.320 168.142  0.00  0.00    +0.000 A 
ATOM     16  C16 UNL     1     162.946 160.105 167.498  0.00  0.00    +0.000 A 
BRANCH  14  17
ATOM     17  C11 UNL     1     166.244 159.506 169.248  0.00  0.00    +0.000 C 
ATOM     18  C12 UNL     1     166.916 158.191 169.595  0.00  0.00    +0.000 C 
ATOM     19  C13 UNL     1     166.075 160.274 170.533  0.00  0.00    +0.000 C 
ATOM     20  C14 UNL     1     167.203 160.291 168.375  0.00  0.00    +0.000 C 
ENDBRANCH  14  17
ENDBRANCH   1  11
TORSDOF 4
ENDMDL
MODEL 7
REMARK VINA RESULT:      -5.0      9.613     11.475
REMARK  Name = ./3D_structures\o19_MMV1174026_3D.pdb
REMARK  7 active torsions:
REMARK  status: ('A' for Active; 'I' for Inactive)
REMARK    1  A    between atoms: O1_1  and  C1_2
REMARK    2  A    between atoms: O1_1  and  C7_9
REMARK    3  A    between atoms: C4_5  and  N1_6
REMARK    4  A    between atoms: C10_12  and  C11_13
REMARK    5  A    between atoms: C11_13  and  C12_14
REMARK    6  A    between atoms: C11_13  and  C13_15
REMARK    7  A    between atoms: C11_13  and  C14_16
REMARK                            x       y       z     vdW  Elec       q    Type
REMARK                         _______ _______ _______ _____ _____    ______ ____
ROOT
ATOM      1  O1  UNL     1     158.239 156.048 164.259  0.00  0.00    +0.000 OA
ENDROOT
BRANCH   1   2
ATOM      2  C1  UNL     1     158.236 154.747 163.879  0.00  0.00    +0.000 A 
ATOM      3  C2  UNL     1     158.845 153.791 164.673  0.00  0.00    +0.000 A 
ATOM      4  C3  UNL     1     158.819 152.477 164.272  0.00  0.00    +0.000 A 
ATOM      5  C4  UNL     1     158.215 152.044 163.105  0.00  0.00    +0.000 A 
ATOM      6  C5  UNL     1     157.619 153.046 162.338  0.00  0.00    +0.000 A 
ATOM      7  C6  UNL     1     157.612 154.373 162.686  0.00  0.00    +0.000 A 
BRANCH   5   8
ATOM      8  N1  UNL     1     158.190 150.679 162.706  0.00  0.00    +0.000 N 
ATOM      9  H3  UNL     1     158.760 149.966 163.166  0.00  0.00    +0.000 HD
ATOM     10  H4  UNL     1     157.567 150.420 161.916  0.00  0.00    +0.000 HD
ENDBRANCH   5   8
ENDBRANCH   1   2
BRANCH   1  11
ATOM     11  C7  UNL     1     157.998 156.610 165.493  0.00  0.00    +0.000 A 
ATOM     12  C8  UNL     1     158.916 157.305 166.239  0.00  0.00    +0.000 A 
ATOM     13  C9  UNL     1     158.597 157.840 167.482  0.00  0.00    +0.000 A 
ATOM     14  C10 UNL     1     157.312 157.681 168.015  0.00  0.00    +0.000 A 
ATOM     15  C15 UNL     1     156.396 156.989 167.269  0.00  0.00    +0.000 A 
ATOM     16  C16 UNL     1     156.714 156.461 166.037  0.00  0.00    +0.000 A 
BRANCH  14  17
ATOM     17  C11 UNL     1     156.975 158.256 169.355  0.00  0.00    +0.000 C 
ATOM     18  C12 UNL     1     156.040 157.343 170.126  0.00  0.00    +0.000 C 
ATOM     19  C13 UNL     1     156.301 159.599 169.249  0.00  0.00    +0.000 C 
ATOM     20  C14 UNL     1     158.224 158.441 170.194  0.00  0.00    +0.000 C 
ENDBRANCH  14  17
ENDBRANCH   1  11
TORSDOF 4
ENDMDL
MODEL 8
REMARK VINA RESULT:      -5.0      3.327      7.166
REMARK  Name = ./3D_structures\o19_MMV1174026_3D.pdb
REMARK  7 active torsions:
REMARK  status: ('A' for Active; 'I' for Inactive)
REMARK    1  A    between atoms: O1_1  and  C1_2
REMARK    2  A    between atoms: O1_1  and  C7_9
REMARK    3  A    between atoms: C4_5  and  N1_6
REMARK    4  A    between atoms: C10_12  and  C11_13
REMARK    5  A    between atoms: C11_13  and  C12_14
REMARK    6  A    between atoms: C11_13  and  C13_15
REMARK    7  A    between atoms: C11_13  and  C14_16
REMARK                            x       y       z     vdW  Elec       q    Type
REMARK                         _______ _______ _______ _____ _____    ______ ____
ROOT
ATOM      1  O1  UNL     1     163.141 149.980 167.537  0.00  0.00    +0.000 OA
ENDROOT
BRANCH   1   2
ATOM      2  C1  UNL     1     164.382 150.508 167.397  0.00  0.00    +0.000 A 
ATOM      3  C2  UNL     1     165.275 150.468 168.452  0.00  0.00    +0.000 A 
ATOM      4  C3  UNL     1     166.531 150.999 168.283  0.00  0.00    +0.000 A 
ATOM      5  C4  UNL     1     166.963 151.582 167.105  0.00  0.00    +0.000 A 
ATOM      6  C5  UNL     1     166.025 151.601 166.072  0.00  0.00    +0.000 A 
ATOM      7  C6  UNL     1     164.758 151.087 166.182  0.00  0.00    +0.000 A 
BRANCH   5   8
ATOM      8  N1  UNL     1     168.269 152.122 166.941  0.00  0.00    +0.000 N 
ATOM      9  H3  UNL     1     168.861 151.884 166.141  0.00  0.00    +0.000 HD
ATOM     10  H4  UNL     1     168.615 152.774 167.671  0.00  0.00    +0.000 HD
ENDBRANCH   5   8
ENDBRANCH   1   2
BRANCH   1  11
ATOM     11  C7  UNL     1     162.686 149.004 168.396  0.00  0.00    +0.000 A 
ATOM     12  C8  UNL     1     161.996 149.234 169.560  0.00  0.00    +0.000 A 
ATOM     13  C9  UNL     1     161.573 148.193 170.379  0.00  0.00    +0.000 A 
ATOM     14  C10 UNL     1     161.844 146.863 170.035  0.00  0.00    +0.000 A 
ATOM     15  C15 UNL     1     162.531 146.635 168.873  0.00  0.00    +0.000 A 
ATOM     16  C16 UNL     1     162.948 147.668 168.062  0.00  0.00    +0.000 A 
BRANCH  14  17
ATOM     17  C11 UNL     1     161.390 145.747 170.923  0.00  0.00    +0.000 C 
ATOM     18  C12 UNL     1     161.979 144.420 170.483  0.00  0.00    +0.000 C 
ATOM     19  C13 UNL     1     159.892 145.592 170.925  0.00  0.00    +0.000 C 
ATOM     20  C14 UNL     1     161.823 145.985 172.356  0.00  0.00    +0.000 C 
ENDBRANCH  14  17
ENDBRANCH   1  11
TORSDOF 4
ENDMDL
MODEL 9
REMARK VINA RESULT:      -4.9     11.426     12.761
REMARK  Name = ./3D_structures\o19_MMV1174026_3D.pdb
REMARK  7 active torsions:
REMARK  status: ('A' for Active; 'I' for Inactive)
REMARK    1  A    between atoms: O1_1  and  C1_2
REMARK    2  A    between atoms: O1_1  and  C7_9
REMARK    3  A    between atoms: C4_5  and  N1_6
REMARK    4  A    between atoms: C10_12  and  C11_13
REMARK    5  A    between atoms: C11_13  and  C12_14
REMARK    6  A    between atoms: C11_13  and  C13_15
REMARK    7  A    between atoms: C11_13  and  C14_16
REMARK                            x       y       z     vdW  Elec       q    Type
REMARK                         _______ _______ _______ _____ _____    ______ ____
ROOT
ATOM      1  O1  UNL     1     155.963 157.323 169.762  0.00  0.00    +0.000 OA
ENDROOT
BRANCH   1   2
ATOM      2  C1  UNL     1     154.827 158.041 169.939  0.00  0.00    +0.000 A 
ATOM      3  C2  UNL     1     154.807 159.101 170.826  0.00  0.00    +0.000 A 
ATOM      4  C3  UNL     1     153.647 159.821 170.980  0.00  0.00    +0.000 A 
ATOM      5  C4  UNL     1     152.479 159.545 170.292  0.00  0.00    +0.000 A 
ATOM      6  C5  UNL     1     152.548 158.465 169.412  0.00  0.00    +0.000 A 
ATOM      7  C6  UNL     1     153.677 157.710 169.217  0.00  0.00    +0.000 A 
BRANCH   5   8
ATOM      8  N1  UNL     1     151.286 160.303 170.455  0.00  0.00    +0.000 N 
ATOM      9  H3  UNL     1     150.857 160.818 169.683  0.00  0.00    +0.000 HD
ATOM     10  H4  UNL     1     150.855 160.325 171.400  0.00  0.00    +0.000 HD
ENDBRANCH   5   8
ENDBRANCH   1   2
BRANCH   1  11
ATOM     11  C7  UNL     1     157.101 157.627 169.047  0.00  0.00    +0.000 A 
ATOM     12  C8  UNL     1     157.300 157.344 167.719  0.00  0.00    +0.000 A 
ATOM     13  C9  UNL     1     158.481 157.679 167.067  0.00  0.00    +0.000 A 
ATOM     14  C10 UNL     1     159.515 158.324 167.757  0.00  0.00    +0.000 A 
ATOM     15  C15 UNL     1     159.314 158.608 169.081  0.00  0.00    +0.000 A 
ATOM     16  C16 UNL     1     158.143 158.276 169.725  0.00  0.00    +0.000 A 
BRANCH  14  17
ATOM     17  C11 UNL     1     160.785 158.680 167.051  0.00  0.00    +0.000 C 
ATOM     18  C12 UNL     1     161.245 160.079 167.415  0.00  0.00    +0.000 C 
ATOM     19  C13 UNL     1     160.639 158.634 165.552  0.00  0.00    +0.000 C 
ATOM     20  C14 UNL     1     161.899 157.722 167.426  0.00  0.00    +0.000 C 
ENDBRANCH  14  17
ENDBRANCH   1  11
TORSDOF 4
ENDMDL
