MODEL 1
REMARK VINA RESULT:      -4.5      0.000      0.000
REMARK  Name = ./3D_structures\o1_MMV180402_3D.pdb
REMARK  1 active torsions:
REMARK  status: ('A' for Active; 'I' for Inactive)
REMARK    1  A    between atoms: N1_1  and  C1_2
REMARK                            x       y       z     vdW  Elec       q    Type
REMARK                         _______ _______ _______ _____ _____    ______ ____
ROOT
ATOM      1  C1  UNL     1     161.746 144.047 172.388  0.00  0.00    +0.000 C 
ATOM      2  C2  UNL     1     161.007 145.353 172.211  0.00  0.00    +0.000 C 
ATOM      3  C3  UNL     1     162.076 146.362 171.772  0.00  0.00    +0.000 C 
ATOM      4  C4  UNL     1     162.694 145.887 170.497  0.00  0.00    +0.000 C 
ATOM      5  C5  UNL     1     161.621 145.887 169.429  0.00  0.00    +0.000 C 
ATOM      6  C6  UNL     1     160.576 144.880 169.809  0.00  0.00    +0.000 C 
ATOM      7  C7  UNL     1     159.961 145.302 171.143  0.00  0.00    +0.000 C 
ATOM      8  C8  UNL     1     161.134 143.492 170.016  0.00  0.00    +0.000 C 
ATOM      9  C9  UNL     1     162.214 143.519 171.058  0.00  0.00    +0.000 C 
ATOM     10  C10 UNL     1     163.277 144.513 170.566  0.00  0.00    +0.000 C 
ENDROOT
BRANCH   1  11
ATOM     11  N1  UNL     1     161.037 143.090 173.172  0.00  0.00    +0.000 NA
ATOM     12  H1  UNL     1     161.459 142.155 173.010  0.00  0.00    +0.000 HD
ATOM     13  H2  UNL     1     160.018 143.122 173.072  0.00  0.00    +0.000 HD
ENDBRANCH   1  11
TORSDOF 1
ENDMDL
MODEL 2
REMARK VINA RESULT:      -4.1      1.276      2.628
REMARK  Name = ./3D_structures\o1_MMV180402_3D.pdb
REMARK  1 active torsions:
REMARK  status: ('A' for Active; 'I' for Inactive)
REMARK    1  A    between atoms: N1_1  and  C1_2
REMARK                            x       y       z     vdW  Elec       q    Type
REMARK                         _______ _______ _______ _____ _____    ______ ____
ROOT
ATOM      1  C1  UNL     1     161.636 143.296 170.694  0.00  0.00    +0.000 C 
ATOM      2  C2  UNL     1     161.111 143.955 169.440  0.00  0.00    +0.000 C 
ATOM      3  C3  UNL     1     159.811 144.651 169.866  0.00  0.00    +0.000 C 
ATOM      4  C4  UNL     1     160.125 145.646 170.936  0.00  0.00    +0.000 C 
ATOM      5  C5  UNL     1     161.020 146.709 170.336  0.00  0.00    +0.000 C 
ATOM      6  C6  UNL     1     162.318 146.068 169.942  0.00  0.00    +0.000 C 
ATOM      7  C7  UNL     1     162.029 145.000 168.889  0.00  0.00    +0.000 C 
ATOM      8  C8  UNL     1     163.006 145.365 171.088  0.00  0.00    +0.000 C 
ATOM      9  C9  UNL     1     162.092 144.334 171.686  0.00  0.00    +0.000 C 
ATOM     10  C10 UNL     1     160.821 145.075 172.128  0.00  0.00    +0.000 C 
ENDROOT
BRANCH   1  11
ATOM     11  N1  UNL     1     162.599 142.274 170.445  0.00  0.00    +0.000 NA
ATOM     12  H1  UNL     1     162.319 141.424 170.973  0.00  0.00    +0.000 HD
ATOM     13  H2  UNL     1     163.573 142.559 170.579  0.00  0.00    +0.000 HD
ENDBRANCH   1  11
TORSDOF 1
ENDMDL
MODEL 3
REMARK VINA RESULT:      -4.1     14.011     15.007
REMARK  Name = ./3D_structures\o1_MMV180402_3D.pdb
REMARK  1 active torsions:
REMARK  status: ('A' for Active; 'I' for Inactive)
REMARK    1  A    between atoms: N1_1  and  C1_2
REMARK                            x       y       z     vdW  Elec       q    Type
REMARK                         _______ _______ _______ _____ _____    ______ ____
ROOT
ATOM      1  C1  UNL     1     155.844 157.381 169.405  0.00  0.00    +0.000 C 
ATOM      2  C2  UNL     1     155.398 158.253 170.555  0.00  0.00    +0.000 C 
ATOM      3  C3  UNL     1     156.567 158.236 171.549  0.00  0.00    +0.000 C 
ATOM      4  C4  UNL     1     157.784 158.776 170.872  0.00  0.00    +0.000 C 
ATOM      5  C5  UNL     1     157.521 160.225 170.525  0.00  0.00    +0.000 C 
ATOM      6  C6  UNL     1     156.405 160.277 169.523  0.00  0.00    +0.000 C 
ATOM      7  C7  UNL     1     155.154 159.676 170.161  0.00  0.00    +0.000 C 
ATOM      8  C8  UNL     1     156.684 159.465 168.281  0.00  0.00    +0.000 C 
ATOM      9  C9  UNL     1     156.970 158.037 168.649  0.00  0.00    +0.000 C 
ATOM     10  C10 UNL     1     158.163 158.062 169.616  0.00  0.00    +0.000 C 
ENDROOT
BRANCH   1  11
ATOM     11  N1  UNL     1     154.774 156.935 168.575  0.00  0.00    +0.000 NA
ATOM     12  H1  UNL     1     153.896 157.383 168.902  0.00  0.00    +0.000 HD
ATOM     13  H2  UNL     1     154.717 155.919 168.456  0.00  0.00    +0.000 HD
ENDBRANCH   1  11
TORSDOF 1
ENDMDL
MODEL 4
REMARK VINA RESULT:      -4.0     14.079     15.173
REMARK  Name = ./3D_structures\o1_MMV180402_3D.pdb
REMARK  1 active torsions:
REMARK  status: ('A' for Active; 'I' for Inactive)
REMARK    1  A    between atoms: N1_1  and  C1_2
REMARK                            x       y       z     vdW  Elec       q    Type
REMARK                         _______ _______ _______ _____ _____    ______ ____
ROOT
ATOM      1  C1  UNL     1     156.953 159.316 168.173  0.00  0.00    +0.000 C 
ATOM      2  C2  UNL     1     156.218 159.966 169.321  0.00  0.00    +0.000 C 
ATOM      3  C3  UNL     1     155.074 159.001 169.663  0.00  0.00    +0.000 C 
ATOM      4  C4  UNL     1     155.655 157.678 170.043  0.00  0.00    +0.000 C 
ATOM      5  C5  UNL     1     156.465 157.870 171.308  0.00  0.00    +0.000 C 
ATOM      6  C6  UNL     1     157.617 158.781 170.999  0.00  0.00    +0.000 C 
ATOM      7  C7  UNL     1     157.058 160.129 170.548  0.00  0.00    +0.000 C 
ATOM      8  C8  UNL     1     158.486 158.278 169.871  0.00  0.00    +0.000 C 
ATOM      9  C9  UNL     1     157.660 158.068 168.635  0.00  0.00    +0.000 C 
ATOM     10  C10 UNL     1     156.550 157.075 169.010  0.00  0.00    +0.000 C 
ENDROOT
BRANCH   1  11
ATOM     11  N1  UNL     1     157.785 160.215 167.444  0.00  0.00    +0.000 NA
ATOM     12  H1  UNL     1     158.173 160.914 168.107  0.00  0.00    +0.000 HD
ATOM     13  H2  UNL     1     157.355 160.614 166.604  0.00  0.00    +0.000 HD
ENDBRANCH   1  11
TORSDOF 1
ENDMDL
MODEL 5
REMARK VINA RESULT:      -4.0     14.035     15.131
REMARK  Name = ./3D_structures\o1_MMV180402_3D.pdb
REMARK  1 active torsions:
REMARK  status: ('A' for Active; 'I' for Inactive)
REMARK    1  A    between atoms: N1_1  and  C1_2
REMARK                            x       y       z     vdW  Elec       q    Type
REMARK                         _______ _______ _______ _____ _____    ______ ____
ROOT
ATOM      1  C1  UNL     1     155.029 158.842 169.503  0.00  0.00    +0.000 C 
ATOM      2  C2  UNL     1     155.645 157.586 170.074  0.00  0.00    +0.000 C 
ATOM      3  C3  UNL     1     156.567 157.054 168.968  0.00  0.00    +0.000 C 
ATOM      4  C4  UNL     1     157.594 158.092 168.653  0.00  0.00    +0.000 C 
ATOM      5  C5  UNL     1     158.450 158.290 169.885  0.00  0.00    +0.000 C 
ATOM      6  C6  UNL     1     157.586 158.847 170.978  0.00  0.00    +0.000 C 
ATOM      7  C7  UNL     1     156.485 157.835 171.287  0.00  0.00    +0.000 C 
ATOM      8  C8  UNL     1     156.891 160.131 170.590  0.00  0.00    +0.000 C 
ATOM      9  C9  UNL     1     156.069 159.921 169.352  0.00  0.00    +0.000 C 
ATOM     10  C10 UNL     1     157.032 159.421 168.264  0.00  0.00    +0.000 C 
ENDROOT
BRANCH   1  11
ATOM     11  N1  UNL     1     153.854 159.266 170.191  0.00  0.00    +0.000 NA
ATOM     12  H1  UNL     1     153.143 159.544 169.486  0.00  0.00    +0.000 HD
ATOM     13  H2  UNL     1     154.014 159.956 170.931  0.00  0.00    +0.000 HD
ENDBRANCH   1  11
TORSDOF 1
ENDMDL
MODEL 6
REMARK VINA RESULT:      -4.0     13.959     14.972
REMARK  Name = ./3D_structures\o1_MMV180402_3D.pdb
REMARK  1 active torsions:
REMARK  status: ('A' for Active; 'I' for Inactive)
REMARK    1  A    between atoms: N1_1  and  C1_2
REMARK                            x       y       z     vdW  Elec       q    Type
REMARK                         _______ _______ _______ _____ _____    ______ ____
ROOT
ATOM      1  C1  UNL     1     155.094 158.780 169.279  0.00  0.00    +0.000 C 
ATOM      2  C2  UNL     1     156.169 159.799 168.981  0.00  0.00    +0.000 C 
ATOM      3  C3  UNL     1     156.827 160.096 170.336  0.00  0.00    +0.000 C 
ATOM      4  C4  UNL     1     157.390 158.827 170.888  0.00  0.00    +0.000 C 
ATOM      5  C5  UNL     1     158.488 158.360 169.956  0.00  0.00    +0.000 C 
ATOM      6  C6  UNL     1     157.872 158.024 168.629  0.00  0.00    +0.000 C 
ATOM      7  C7  UNL     1     157.231 159.288 168.060  0.00  0.00    +0.000 C 
ATOM      8  C8  UNL     1     156.772 156.994 168.729  0.00  0.00    +0.000 C 
ATOM      9  C9  UNL     1     155.707 157.463 169.677  0.00  0.00    +0.000 C 
ATOM     10  C10 UNL     1     156.399 157.717 171.026  0.00  0.00    +0.000 C 
ENDROOT
BRANCH   1  11
ATOM     11  N1  UNL     1     154.108 158.671 168.254  0.00  0.00    +0.000 NA
ATOM     12  H1  UNL     1     153.461 157.897 168.501  0.00  0.00    +0.000 HD
ATOM     13  H2  UNL     1     154.482 158.628 167.301  0.00  0.00    +0.000 HD
ENDBRANCH   1  11
TORSDOF 1
ENDMDL
MODEL 7
REMARK VINA RESULT:      -4.0     14.040     15.133
REMARK  Name = ./3D_structures\o1_MMV180402_3D.pdb
REMARK  1 active torsions:
REMARK  status: ('A' for Active; 'I' for Inactive)
REMARK    1  A    between atoms: N1_1  and  C1_2
REMARK                            x       y       z     vdW  Elec       q    Type
REMARK                         _______ _______ _______ _____ _____    ______ ____
ROOT
ATOM      1  C1  UNL     1     156.997 159.289 168.184  0.00  0.00    +0.000 C 
ATOM      2  C2  UNL     1     157.518 157.946 168.641  0.00  0.00    +0.000 C 
ATOM      3  C3  UNL     1     158.401 158.252 169.859  0.00  0.00    +0.000 C 
ATOM      4  C4  UNL     1     157.567 158.917 170.905  0.00  0.00    +0.000 C 
ATOM      5  C5  UNL     1     156.513 157.931 171.359  0.00  0.00    +0.000 C 
ATOM      6  C6  UNL     1     155.607 157.638 170.199  0.00  0.00    +0.000 C 
ATOM      7  C7  UNL     1     156.439 157.009 169.083  0.00  0.00    +0.000 C 
ATOM      8  C8  UNL     1     154.972 158.877 169.613  0.00  0.00    +0.000 C 
ATOM      9  C9  UNL     1     156.033 159.854 169.194  0.00  0.00    +0.000 C 
ATOM     10  C10 UNL     1     156.871 160.157 170.446  0.00  0.00    +0.000 C 
ENDROOT
BRANCH   1  11
ATOM     11  N1  UNL     1     156.497 159.285 166.849  0.00  0.00    +0.000 NA
ATOM     12  H1  UNL     1     156.450 158.301 166.518  0.00  0.00    +0.000 HD
ATOM     13  H2  UNL     1     156.974 159.927 166.209  0.00  0.00    +0.000 HD
ENDBRANCH   1  11
TORSDOF 1
ENDMDL
MODEL 8
REMARK VINA RESULT:      -3.9     14.034     15.015
REMARK  Name = ./3D_structures\o1_MMV180402_3D.pdb
REMARK  1 active torsions:
REMARK  status: ('A' for Active; 'I' for Inactive)
REMARK    1  A    between atoms: N1_1  and  C1_2
REMARK                            x       y       z     vdW  Elec       q    Type
REMARK                         _______ _______ _______ _____ _____    ______ ____
ROOT
ATOM      1  C1  UNL     1     156.796 160.041 170.446  0.00  0.00    +0.000 C 
ATOM      2  C2  UNL     1     156.049 159.786 169.158  0.00  0.00    +0.000 C 
ATOM      3  C3  UNL     1     157.129 159.404 168.136  0.00  0.00    +0.000 C 
ATOM      4  C4  UNL     1     157.845 158.186 168.623  0.00  0.00    +0.000 C 
ATOM      5  C5  UNL     1     156.851 157.045 168.663  0.00  0.00    +0.000 C 
ATOM      6  C6  UNL     1     155.799 157.369 169.682  0.00  0.00    +0.000 C 
ATOM      7  C7  UNL     1     155.083 158.647 169.248  0.00  0.00    +0.000 C 
ATOM      8  C8  UNL     1     156.366 157.642 171.055  0.00  0.00    +0.000 C 
ATOM      9  C9  UNL     1     157.368 158.757 170.989  0.00  0.00    +0.000 C 
ATOM     10  C10 UNL     1     158.446 158.323 169.984  0.00  0.00    +0.000 C 
ENDROOT
BRANCH   1  11
ATOM     11  N1  UNL     1     156.050 160.790 171.402  0.00  0.00    +0.000 NA
ATOM     12  H1  UNL     1     156.560 161.675 171.596  0.00  0.00    +0.000 HD
ATOM     13  H2  UNL     1     155.772 160.266 172.237  0.00  0.00    +0.000 HD
ENDBRANCH   1  11
TORSDOF 1
ENDMDL
MODEL 9
REMARK VINA RESULT:      -3.9     13.989     15.065
REMARK  Name = ./3D_structures\o1_MMV180402_3D.pdb
REMARK  1 active torsions:
REMARK  status: ('A' for Active; 'I' for Inactive)
REMARK    1  A    between atoms: N1_1  and  C1_2
REMARK                            x       y       z     vdW  Elec       q    Type
REMARK                         _______ _______ _______ _____ _____    ______ ____
ROOT
ATOM      1  C1  UNL     1     156.024 159.610 170.502  0.00  0.00    +0.000 C 
ATOM      2  C2  UNL     1     156.862 158.421 170.911  0.00  0.00    +0.000 C 
ATOM      3  C3  UNL     1     156.004 157.192 170.580  0.00  0.00    +0.000 C 
ATOM      4  C4  UNL     1     155.703 157.193 169.116  0.00  0.00    +0.000 C 
ATOM      5  C5  UNL     1     157.011 157.033 168.371  0.00  0.00    +0.000 C 
ATOM      6  C6  UNL     1     157.862 158.239 168.643  0.00  0.00    +0.000 C 
ATOM      7  C7  UNL     1     158.141 158.305 170.143  0.00  0.00    +0.000 C 
ATOM      8  C8  UNL     1     157.185 159.539 168.276  0.00  0.00    +0.000 C 
ATOM      9  C9  UNL     1     155.878 159.666 169.004  0.00  0.00    +0.000 C 
ATOM     10  C10 UNL     1     155.040 158.437 168.621  0.00  0.00    +0.000 C 
ENDROOT
BRANCH   1  11
ATOM     11  N1  UNL     1     156.449 160.839 171.087  0.00  0.00    +0.000 NA
ATOM     12  H1  UNL     1     157.036 161.346 170.395  0.00  0.00    +0.000 HD
ATOM     13  H2  UNL     1     156.867 160.750 172.018  0.00  0.00    +0.000 HD
ENDBRANCH   1  11
TORSDOF 1
ENDMDL
