MODEL 1
REMARK VINA RESULT:      -6.2      0.000      0.000
REMARK  Name = ./3D_structures\o22_MMV1580491_3D.pdb
REMARK  20 active torsions:
REMARK  status: ('A' for Active; 'I' for Inactive)
REMARK    1  A    between atoms: C4_5  and  C5_6
REMARK    2  A    between atoms: C5_6  and  C6_7
REMARK    3  A    between atoms: C6_7  and  C7_8
REMARK    4  A    between atoms: C6_7  and  C19_26
REMARK    5  A    between atoms: N1_10  and  C8_11
REMARK    6  A    between atoms: C8_11  and  C9_12
REMARK    7  A    between atoms: C8_11  and  C14_19
REMARK    8  A    between atoms: C10_13  and  C11_14
REMARK    9  A    between atoms: C11_14  and  O3_16
REMARK   10  A    between atoms: O3_16  and  C12_17
REMARK   11  A    between atoms: C12_17  and  C13_18
REMARK   12  A    between atoms: C14_19  and  C15_20
REMARK   13  A    between atoms: C19_26  and  C20_27
REMARK   14  A    between atoms: C20_27  and  C21_29
REMARK   15  A    between atoms: C21_29  and  N3_30
REMARK   16  A    between atoms: C21_29  and  C27_39
REMARK   17  A    between atoms: C22_31  and  C23_33
REMARK   18  A    between atoms: C24_36  and  C26_38
REMARK   19  A    between atoms: C27_39  and  C28_40
REMARK   20  A    between atoms: C27_39  and  C29_41
REMARK                            x       y       z     vdW  Elec       q    Type
REMARK                         _______ _______ _______ _____ _____    ______ ____
ROOT
ATOM      1  C6  UNL     1     152.201 161.015 168.934  0.00  0.00    +0.000 C 
ENDROOT
BRANCH   1   2
ATOM      2  C7  UNL     1     151.084 161.935 169.419  0.00  0.00    +0.000 C 
ATOM      3  O1  UNL     1     151.230 162.500 170.524  0.00  0.00    +0.000 OA
ATOM      4  N1  UNL     1     149.927 162.167 168.692  0.00  0.00    +0.000 N 
ATOM      5  H6  UNL     1     149.782 161.713 167.797  0.00  0.00    +0.000 HD
BRANCH   4   6
ATOM      6  C8  UNL     1     148.911 163.059 169.208  0.00  0.00    +0.000 C 
BRANCH   6   7
ATOM      7  C9  UNL     1     147.593 162.572 168.718  0.00  0.00    +0.000 C 
ATOM      8  C10 UNL     1     147.470 161.628 167.809  0.00  0.00    +0.000 C 
BRANCH   8   9
ATOM      9  C11 UNL     1     146.151 161.164 167.345  0.00  0.00    +0.000 C 
ATOM     10  O2  UNL     1     146.040 160.377 166.373  0.00  0.00    +0.000 OA
BRANCH   9  11
ATOM     11  O3  UNL     1     145.002 161.598 167.985  0.00  0.00    +0.000 OA
BRANCH  11  12
ATOM     12  C12 UNL     1     143.956 162.297 167.350  0.00  0.00    +0.000 C 
ATOM     13  C13 UNL     1     144.301 163.780 167.488  0.00  0.00    +0.000 C 
ENDBRANCH  11  12
ENDBRANCH   9  11
ENDBRANCH   8   9
ENDBRANCH   6   7
BRANCH   6  14
ATOM     14  C14 UNL     1     149.091 164.445 168.620  0.00  0.00    +0.000 C 
BRANCH  14  15
ATOM     15  C15 UNL     1     149.694 164.394 167.239  0.00  0.00    +0.000 C 
ATOM     16  C16 UNL     1     148.782 165.126 166.320  0.00  0.00    +0.000 C 
ATOM     17  O4  UNL     1     147.549 164.980 166.214  0.00  0.00    +0.000 OA
ATOM     18  N2  UNL     1     149.564 166.052 165.550  0.00  0.00    +0.000 N 
ATOM     19  C17 UNL     1     150.928 165.632 165.692  0.00  0.00    +0.000 C 
ATOM     20  C18 UNL     1     151.016 165.096 167.129  0.00  0.00    +0.000 C 
ATOM     21  H18 UNL     1     149.195 166.857 165.006  0.00  0.00    +0.000 HD
ENDBRANCH  14  15
ENDBRANCH   6  14
ENDBRANCH   4   6
ENDBRANCH   1   2
BRANCH   1  22
ATOM     22  C5  UNL     1     152.018 160.868 167.511  0.00  0.00    +0.000 C 
BRANCH  22  27
ATOM     23  F1  UNL     1     153.825 164.077 163.286  0.00  0.00    +0.000 F 
ATOM     24  C1  UNL     1     153.415 163.299 164.319  0.00  0.00    +0.000 A 
ATOM     25  C2  UNL     1     154.073 163.283 165.538  0.00  0.00    +0.000 A 
ATOM     26  C3  UNL     1     153.671 162.506 166.581  0.00  0.00    +0.000 A 
ATOM     27  C4  UNL     1     152.574 161.682 166.478  0.00  0.00    +0.000 A 
ATOM     28  C30 UNL     1     151.925 161.713 165.241  0.00  0.00    +0.000 A 
ATOM     29  C31 UNL     1     152.318 162.485 164.196  0.00  0.00    +0.000 A 
ENDBRANCH  22  27
ENDBRANCH   1  22
BRANCH   1  30
ATOM     30  C19 UNL     1     152.227 159.863 169.865  0.00  0.00    +0.000 C 
BRANCH  30  31
ATOM     31  C20 UNL     1     153.189 159.834 170.970  0.00  0.00    +0.000 C 
ATOM     32  O5  UNL     1     152.881 159.981 172.134  0.00  0.00    +0.000 OA
BRANCH  31  33
ATOM     33  C21 UNL     1     154.646 159.623 170.742  0.00  0.00    +0.000 C 
BRANCH  33  34
ATOM     34  N3  UNL     1     154.963 159.044 169.474  0.00  0.00    +0.000 N 
ATOM     35  C22 UNL     1     155.517 157.766 169.275  0.00  0.00    +0.000 C 
ATOM     36  O6  UNL     1     155.751 157.076 170.306  0.00  0.00    +0.000 OA
ATOM     37  H26 UNL     1     154.766 159.625 168.631  0.00  0.00    +0.000 HD
BRANCH  35  38
ATOM     38  C23 UNL     1     155.807 157.264 167.936  0.00  0.00    +0.000 A 
ATOM     39  N4  UNL     1     154.997 157.178 166.864  0.00  0.00    +0.000 NA
ATOM     40  O7  UNL     1     155.645 156.668 165.853  0.00  0.00    +0.000 OA
ATOM     41  C24 UNL     1     156.874 156.391 166.164  0.00  0.00    +0.000 A 
ATOM     42  C25 UNL     1     157.017 156.759 167.488  0.00  0.00    +0.000 A 
ATOM     43  C26 UNL     1     157.904 155.803 165.274  0.00  0.00    +0.000 C 
ENDBRANCH  35  38
ENDBRANCH  33  34
BRANCH  33  44
ATOM     44  C27 UNL     1     155.469 160.870 170.899  0.00  0.00    +0.000 C 
ATOM     45  C28 UNL     1     155.891 161.331 169.541  0.00  0.00    +0.000 C 
ATOM     46  C29 UNL     1     156.740 160.420 171.642  0.00  0.00    +0.000 C 
ENDBRANCH  33  44
ENDBRANCH  31  33
ENDBRANCH  30  31
ENDBRANCH   1  30
TORSDOF 16
ENDMDL
MODEL 2
REMARK VINA RESULT:      -6.2      2.277      3.451
REMARK  Name = ./3D_structures\o22_MMV1580491_3D.pdb
REMARK  20 active torsions:
REMARK  status: ('A' for Active; 'I' for Inactive)
REMARK    1  A    between atoms: C4_5  and  C5_6
REMARK    2  A    between atoms: C5_6  and  C6_7
REMARK    3  A    between atoms: C6_7  and  C7_8
REMARK    4  A    between atoms: C6_7  and  C19_26
REMARK    5  A    between atoms: N1_10  and  C8_11
REMARK    6  A    between atoms: C8_11  and  C9_12
REMARK    7  A    between atoms: C8_11  and  C14_19
REMARK    8  A    between atoms: C10_13  and  C11_14
REMARK    9  A    between atoms: C11_14  and  O3_16
REMARK   10  A    between atoms: O3_16  and  C12_17
REMARK   11  A    between atoms: C12_17  and  C13_18
REMARK   12  A    between atoms: C14_19  and  C15_20
REMARK   13  A    between atoms: C19_26  and  C20_27
REMARK   14  A    between atoms: C20_27  and  C21_29
REMARK   15  A    between atoms: C21_29  and  N3_30
REMARK   16  A    between atoms: C21_29  and  C27_39
REMARK   17  A    between atoms: C22_31  and  C23_33
REMARK   18  A    between atoms: C24_36  and  C26_38
REMARK   19  A    between atoms: C27_39  and  C28_40
REMARK   20  A    between atoms: C27_39  and  C29_41
REMARK                            x       y       z     vdW  Elec       q    Type
REMARK                         _______ _______ _______ _____ _____    ______ ____
ROOT
ATOM      1  C6  UNL     1     150.073 162.229 168.406  0.00  0.00    +0.000 C 
ENDROOT
BRANCH   1   2
ATOM      2  C7  UNL     1     148.568 162.483 168.418  0.00  0.00    +0.000 C 
ATOM      3  O1  UNL     1     148.058 162.922 169.472  0.00  0.00    +0.000 OA
ATOM      4  N1  UNL     1     147.753 162.251 167.322  0.00  0.00    +0.000 N 
ATOM      5  H6  UNL     1     148.142 161.887 166.459  0.00  0.00    +0.000 HD
BRANCH   4   6
ATOM      6  C8  UNL     1     146.333 162.522 167.400  0.00  0.00    +0.000 C 
BRANCH   6   7
ATOM      7  C9  UNL     1     145.617 161.234 167.206  0.00  0.00    +0.000 C 
ATOM      8  C10 UNL     1     146.235 160.077 167.102  0.00  0.00    +0.000 C 
BRANCH   8   9
ATOM      9  C11 UNL     1     145.499 158.815 166.912  0.00  0.00    +0.000 C 
ATOM     10  O2  UNL     1     144.666 158.678 165.982  0.00  0.00    +0.000 OA
BRANCH   9  11
ATOM     11  O3  UNL     1     145.720 157.751 167.771  0.00  0.00    +0.000 OA
BRANCH  11  12
ATOM     12  C12 UNL     1     146.858 156.921 167.727  0.00  0.00    +0.000 C 
ATOM     13  C13 UNL     1     147.394 156.872 169.159  0.00  0.00    +0.000 C 
ENDBRANCH  11  12
ENDBRANCH   9  11
ENDBRANCH   8   9
ENDBRANCH   6   7
BRANCH   6  14
ATOM     14  C14 UNL     1     145.913 163.414 166.248  0.00  0.00    +0.000 C 
BRANCH  14  15
ATOM     15  C15 UNL     1     145.879 164.867 166.647  0.00  0.00    +0.000 C 
ATOM     16  C16 UNL     1     147.113 165.510 166.120  0.00  0.00    +0.000 C 
ATOM     17  O4  UNL     1     148.283 165.098 166.239  0.00  0.00    +0.000 OA
ATOM     18  N2  UNL     1     146.738 166.713 165.433  0.00  0.00    +0.000 N 
ATOM     19  C17 UNL     1     145.401 167.012 165.859  0.00  0.00    +0.000 C 
ATOM     20  C18 UNL     1     144.742 165.636 166.043  0.00  0.00    +0.000 C 
ATOM     21  H18 UNL     1     147.331 167.245 164.766  0.00  0.00    +0.000 HD
ENDBRANCH  14  15
ENDBRANCH   6  14
ENDBRANCH   4   6
ENDBRANCH   1   2
BRANCH   1  22
ATOM     22  C5  UNL     1     150.342 161.441 167.228  0.00  0.00    +0.000 C 
BRANCH  22  27
ATOM     23  F1  UNL     1     155.250 160.697 164.625  0.00  0.00    +0.000 F 
ATOM     24  C1  UNL     1     154.059 160.904 165.242  0.00  0.00    +0.000 A 
ATOM     25  C2  UNL     1     153.071 161.703 164.691  0.00  0.00    +0.000 A 
ATOM     26  C3  UNL     1     151.874 161.917 165.302  0.00  0.00    +0.000 A 
ATOM     27  C4  UNL     1     151.577 161.344 166.516  0.00  0.00    +0.000 A 
ATOM     28  C30 UNL     1     152.587 160.542 167.054  0.00  0.00    +0.000 A 
ATOM     29  C31 UNL     1     153.784 160.322 166.452  0.00  0.00    +0.000 A 
ENDBRANCH  22  27
ENDBRANCH   1  22
BRANCH   1  30
ATOM     30  C19 UNL     1     150.432 161.782 169.771  0.00  0.00    +0.000 C 
BRANCH  30  31
ATOM     31  C20 UNL     1     150.473 160.352 170.089  0.00  0.00    +0.000 C 
ATOM     32  O5  UNL     1     149.669 159.546 169.669  0.00  0.00    +0.000 OA
BRANCH  31  33
ATOM     33  C21 UNL     1     151.522 159.770 170.972  0.00  0.00    +0.000 C 
BRANCH  33  34
ATOM     34  N3  UNL     1     152.704 159.355 170.283  0.00  0.00    +0.000 N 
ATOM     35  C22 UNL     1     152.942 158.066 169.770  0.00  0.00    +0.000 C 
ATOM     36  O6  UNL     1     152.031 157.208 169.933  0.00  0.00    +0.000 OA
ATOM     37  H26 UNL     1     153.449 160.074 170.156  0.00  0.00    +0.000 HD
BRANCH  35  38
ATOM     38  C23 UNL     1     154.186 157.741 169.081  0.00  0.00    +0.000 A 
ATOM     39  N4  UNL     1     154.374 157.031 167.953  0.00  0.00    +0.000 NA
ATOM     40  O7  UNL     1     155.646 156.969 167.670  0.00  0.00    +0.000 OA
ATOM     41  C24 UNL     1     156.362 157.601 168.549  0.00  0.00    +0.000 A 
ATOM     42  C25 UNL     1     155.464 158.110 169.467  0.00  0.00    +0.000 A 
ATOM     43  C26 UNL     1     157.838 157.743 168.555  0.00  0.00    +0.000 C 
ENDBRANCH  35  38
ENDBRANCH  33  34
BRANCH  33  44
ATOM     44  C27 UNL     1     151.937 160.676 172.096  0.00  0.00    +0.000 C 
ATOM     45  C28 UNL     1     153.418 160.868 172.026  0.00  0.00    +0.000 C 
ATOM     46  C29 UNL     1     151.642 159.881 173.381  0.00  0.00    +0.000 C 
ENDBRANCH  33  44
ENDBRANCH  31  33
ENDBRANCH  30  31
ENDBRANCH   1  30
TORSDOF 16
ENDMDL
MODEL 3
REMARK VINA RESULT:      -6.2      2.867      9.404
REMARK  Name = ./3D_structures\o22_MMV1580491_3D.pdb
REMARK  20 active torsions:
REMARK  status: ('A' for Active; 'I' for Inactive)
REMARK    1  A    between atoms: C4_5  and  C5_6
REMARK    2  A    between atoms: C5_6  and  C6_7
REMARK    3  A    between atoms: C6_7  and  C7_8
REMARK    4  A    between atoms: C6_7  and  C19_26
REMARK    5  A    between atoms: N1_10  and  C8_11
REMARK    6  A    between atoms: C8_11  and  C9_12
REMARK    7  A    between atoms: C8_11  and  C14_19
REMARK    8  A    between atoms: C10_13  and  C11_14
REMARK    9  A    between atoms: C11_14  and  O3_16
REMARK   10  A    between atoms: O3_16  and  C12_17
REMARK   11  A    between atoms: C12_17  and  C13_18
REMARK   12  A    between atoms: C14_19  and  C15_20
REMARK   13  A    between atoms: C19_26  and  C20_27
REMARK   14  A    between atoms: C20_27  and  C21_29
REMARK   15  A    between atoms: C21_29  and  N3_30
REMARK   16  A    between atoms: C21_29  and  C27_39
REMARK   17  A    between atoms: C22_31  and  C23_33
REMARK   18  A    between atoms: C24_36  and  C26_38
REMARK   19  A    between atoms: C27_39  and  C28_40
REMARK   20  A    between atoms: C27_39  and  C29_41
REMARK                            x       y       z     vdW  Elec       q    Type
REMARK                         _______ _______ _______ _____ _____    ______ ____
ROOT
ATOM      1  C6  UNL     1     150.718 161.447 168.368  0.00  0.00    +0.000 C 
ENDROOT
BRANCH   1   2
ATOM      2  C7  UNL     1     151.261 160.502 169.437  0.00  0.00    +0.000 C 
ATOM      3  O1  UNL     1     151.487 160.973 170.573  0.00  0.00    +0.000 OA
ATOM      4  N1  UNL     1     151.509 159.159 169.203  0.00  0.00    +0.000 N 
ATOM      5  H6  UNL     1     151.342 158.757 168.287  0.00  0.00    +0.000 HD
BRANCH   4   6
ATOM      6  C8  UNL     1     152.016 158.317 170.266  0.00  0.00    +0.000 C 
BRANCH   6   7
ATOM      7  C9  UNL     1     153.412 157.942 169.917  0.00  0.00    +0.000 C 
ATOM      8  C10 UNL     1     153.793 157.651 168.691  0.00  0.00    +0.000 C 
BRANCH   8   9
ATOM      9  C11 UNL     1     155.184 157.285 168.375  0.00  0.00    +0.000 C 
ATOM     10  O2  UNL     1     155.973 156.887 169.266  0.00  0.00    +0.000 OA
BRANCH   9  11
ATOM     11  O3  UNL     1     155.643 157.378 167.071  0.00  0.00    +0.000 OA
BRANCH  11  12
ATOM     12  C12 UNL     1     154.948 158.025 166.030  0.00  0.00    +0.000 C 
ATOM     13  C13 UNL     1     155.906 159.084 165.484  0.00  0.00    +0.000 C 
ENDBRANCH  11  12
ENDBRANCH   9  11
ENDBRANCH   8   9
ENDBRANCH   6   7
BRANCH   6  14
ATOM     14  C14 UNL     1     151.233 157.019 170.316  0.00  0.00    +0.000 C 
BRANCH  14  15
ATOM     15  C15 UNL     1     150.213 157.022 171.426  0.00  0.00    +0.000 C 
ATOM     16  C16 UNL     1     148.890 157.335 170.824  0.00  0.00    +0.000 C 
ATOM     17  O4  UNL     1     148.622 158.270 170.045  0.00  0.00    +0.000 OA
ATOM     18  N2  UNL     1     147.939 156.367 171.293  0.00  0.00    +0.000 N 
ATOM     19  C17 UNL     1     148.543 155.740 172.433  0.00  0.00    +0.000 C 
ATOM     20  C18 UNL     1     150.041 155.690 172.094  0.00  0.00    +0.000 C 
ATOM     21  H18 UNL     1     147.007 156.175 170.876  0.00  0.00    +0.000 HD
ENDBRANCH  14  15
ENDBRANCH   6  14
ENDBRANCH   4   6
ENDBRANCH   1   2
BRANCH   1  22
ATOM     22  C5  UNL     1     151.814 162.304 167.989  0.00  0.00    +0.000 C 
BRANCH  22  27
ATOM     23  F1  UNL     1     153.344 163.545 162.741  0.00  0.00    +0.000 F 
ATOM     24  C1  UNL     1     152.966 163.273 164.016  0.00  0.00    +0.000 A 
ATOM     25  C2  UNL     1     152.001 164.017 164.675  0.00  0.00    +0.000 A 
ATOM     26  C3  UNL     1     151.616 163.754 165.954  0.00  0.00    +0.000 A 
ATOM     27  C4  UNL     1     152.172 162.719 166.670  0.00  0.00    +0.000 A 
ATOM     28  C30 UNL     1     153.142 161.981 165.986  0.00  0.00    +0.000 A 
ATOM     29  C31 UNL     1     153.533 162.236 164.712  0.00  0.00    +0.000 A 
ENDBRANCH  22  27
ENDBRANCH   1  22
BRANCH   1  30
ATOM     30  C19 UNL     1     149.432 161.968 168.885  0.00  0.00    +0.000 C 
BRANCH  30  31
ATOM     31  C20 UNL     1     148.608 162.847 168.052  0.00  0.00    +0.000 C 
ATOM     32  O5  UNL     1     148.194 162.540 166.953  0.00  0.00    +0.000 OA
BRANCH  31  33
ATOM     33  C21 UNL     1     148.213 164.213 168.496  0.00  0.00    +0.000 C 
BRANCH  33  34
ATOM     34  N3  UNL     1     147.036 164.719 167.863  0.00  0.00    +0.000 N 
ATOM     35  C22 UNL     1     147.008 165.689 166.843  0.00  0.00    +0.000 C 
ATOM     36  O6  UNL     1     148.119 166.147 166.459  0.00  0.00    +0.000 OA
ATOM     37  H26 UNL     1     146.124 164.331 168.190  0.00  0.00    +0.000 HD
BRANCH  35  38
ATOM     38  C23 UNL     1     145.750 166.141 166.260  0.00  0.00    +0.000 A 
ATOM     39  N4  UNL     1     145.394 167.374 165.853  0.00  0.00    +0.000 NA
ATOM     40  O7  UNL     1     144.175 167.358 165.388  0.00  0.00    +0.000 OA
ATOM     41  C24 UNL     1     143.657 166.170 165.449  0.00  0.00    +0.000 A 
ATOM     42  C25 UNL     1     144.633 165.363 166.000  0.00  0.00    +0.000 A 
ATOM     43  C26 UNL     1     142.296 165.772 165.014  0.00  0.00    +0.000 C 
ENDBRANCH  35  38
ENDBRANCH  33  34
BRANCH  33  44
ATOM     44  C27 UNL     1     148.026 164.335 169.981  0.00  0.00    +0.000 C 
ATOM     45  C28 UNL     1     146.568 164.512 170.261  0.00  0.00    +0.000 C 
ATOM     46  C29 UNL     1     148.726 165.652 170.367  0.00  0.00    +0.000 C 
ENDBRANCH  33  44
ENDBRANCH  31  33
ENDBRANCH  30  31
ENDBRANCH   1  30
TORSDOF 16
ENDMDL
MODEL 4
REMARK VINA RESULT:      -6.2      4.438      6.372
REMARK  Name = ./3D_structures\o22_MMV1580491_3D.pdb
REMARK  20 active torsions:
REMARK  status: ('A' for Active; 'I' for Inactive)
REMARK    1  A    between atoms: C4_5  and  C5_6
REMARK    2  A    between atoms: C5_6  and  C6_7
REMARK    3  A    between atoms: C6_7  and  C7_8
REMARK    4  A    between atoms: C6_7  and  C19_26
REMARK    5  A    between atoms: N1_10  and  C8_11
REMARK    6  A    between atoms: C8_11  and  C9_12
REMARK    7  A    between atoms: C8_11  and  C14_19
REMARK    8  A    between atoms: C10_13  and  C11_14
REMARK    9  A    between atoms: C11_14  and  O3_16
REMARK   10  A    between atoms: O3_16  and  C12_17
REMARK   11  A    between atoms: C12_17  and  C13_18
REMARK   12  A    between atoms: C14_19  and  C15_20
REMARK   13  A    between atoms: C19_26  and  C20_27
REMARK   14  A    between atoms: C20_27  and  C21_29
REMARK   15  A    between atoms: C21_29  and  N3_30
REMARK   16  A    between atoms: C21_29  and  C27_39
REMARK   17  A    between atoms: C22_31  and  C23_33
REMARK   18  A    between atoms: C24_36  and  C26_38
REMARK   19  A    between atoms: C27_39  and  C28_40
REMARK   20  A    between atoms: C27_39  and  C29_41
REMARK                            x       y       z     vdW  Elec       q    Type
REMARK                         _______ _______ _______ _____ _____    ______ ____
ROOT
ATOM      1  C6  UNL     1     152.536 159.661 169.494  0.00  0.00    +0.000 C 
ENDROOT
BRANCH   1   2
ATOM      2  C7  UNL     1     151.124 159.302 169.950  0.00  0.00    +0.000 C 
ATOM      3  O1  UNL     1     150.343 160.238 170.224  0.00  0.00    +0.000 OA
ATOM      4  N1  UNL     1     150.679 157.995 170.071  0.00  0.00    +0.000 N 
ATOM      5  H6  UNL     1     151.298 157.219 169.862  0.00  0.00    +0.000 HD
BRANCH   4   6
ATOM      6  C8  UNL     1     149.324 157.725 170.500  0.00  0.00    +0.000 C 
BRANCH   6   7
ATOM      7  C9  UNL     1     149.301 156.359 171.088  0.00  0.00    +0.000 C 
ATOM      8  C10 UNL     1     150.379 155.615 171.217  0.00  0.00    +0.000 C 
BRANCH   8   9
ATOM      9  C11 UNL     1     150.326 154.265 171.805  0.00  0.00    +0.000 C 
ATOM     10  O2  UNL     1     150.978 153.978 172.839  0.00  0.00    +0.000 OA
BRANCH   9  11
ATOM     11  O3  UNL     1     149.544 153.285 171.216  0.00  0.00    +0.000 OA
BRANCH  11  12
ATOM     12  C12 UNL     1     149.640 152.902 169.863  0.00  0.00    +0.000 C 
ATOM     13  C13 UNL     1     148.205 152.644 169.400  0.00  0.00    +0.000 C 
ENDBRANCH  11  12
ENDBRANCH   9  11
ENDBRANCH   8   9
ENDBRANCH   6   7
BRANCH   6  14
ATOM     14  C14 UNL     1     148.399 157.680 169.299  0.00  0.00    +0.000 C 
BRANCH  14  15
ATOM     15  C15 UNL     1     147.290 156.676 169.483  0.00  0.00    +0.000 C 
ATOM     16  C16 UNL     1     146.065 157.421 169.878  0.00  0.00    +0.000 C 
ATOM     17  O4  UNL     1     145.967 158.281 170.775  0.00  0.00    +0.000 OA
ATOM     18  N2  UNL     1     144.981 156.985 169.044  0.00  0.00    +0.000 N 
ATOM     19  C17 UNL     1     145.412 155.755 168.446  0.00  0.00    +0.000 C 
ATOM     20  C18 UNL     1     146.921 155.944 168.226  0.00  0.00    +0.000 C 
ATOM     21  H18 UNL     1     144.075 157.477 168.914  0.00  0.00    +0.000 HD
ENDBRANCH  14  15
ENDBRANCH   6  14
ENDBRANCH   4   6
ENDBRANCH   1   2
BRANCH   1  22
ATOM     22  C5  UNL     1     153.223 158.413 169.276  0.00  0.00    +0.000 C 
BRANCH  22  27
ATOM     23  F1  UNL     1     156.790 157.588 165.031  0.00  0.00    +0.000 F 
ATOM     24  C1  UNL     1     155.930 157.759 166.067  0.00  0.00    +0.000 A 
ATOM     25  C2  UNL     1     156.021 157.016 167.233  0.00  0.00    +0.000 A 
ATOM     26  C3  UNL     1     155.164 157.179 168.277  0.00  0.00    +0.000 A 
ATOM     27  C4  UNL     1     154.147 158.105 168.230  0.00  0.00    +0.000 A 
ATOM     28  C30 UNL     1     154.073 158.843 167.046  0.00  0.00    +0.000 A 
ATOM     29  C31 UNL     1     154.924 158.687 166.000  0.00  0.00    +0.000 A 
ENDBRANCH  22  27
ENDBRANCH   1  22
BRANCH   1  30
ATOM     30  C19 UNL     1     153.027 160.696 170.434  0.00  0.00    +0.000 C 
BRANCH  30  31
ATOM     31  C20 UNL     1     153.375 160.331 171.810  0.00  0.00    +0.000 C 
ATOM     32  O5  UNL     1     152.565 159.957 172.633  0.00  0.00    +0.000 OA
BRANCH  31  33
ATOM     33  C21 UNL     1     154.775 160.399 172.314  0.00  0.00    +0.000 C 
BRANCH  33  34
ATOM     34  N3  UNL     1     155.771 160.207 171.307  0.00  0.00    +0.000 N 
ATOM     35  C22 UNL     1     156.647 159.109 171.224  0.00  0.00    +0.000 C 
ATOM     36  O6  UNL     1     156.541 158.222 172.115  0.00  0.00    +0.000 OA
ATOM     37  H26 UNL     1     155.849 160.947 170.577  0.00  0.00    +0.000 HD
BRANCH  35  38
ATOM     38  C23 UNL     1     157.633 159.003 170.154  0.00  0.00    +0.000 A 
ATOM     39  N4  UNL     1     158.688 158.174 170.046  0.00  0.00    +0.000 NA
ATOM     40  O7  UNL     1     159.325 158.402 168.930  0.00  0.00    +0.000 OA
ATOM     41  C24 UNL     1     158.766 159.354 168.248  0.00  0.00    +0.000 A 
ATOM     42  C25 UNL     1     157.681 159.764 168.997  0.00  0.00    +0.000 A 
ATOM     43  C26 UNL     1     159.210 159.884 166.936  0.00  0.00    +0.000 C 
ENDBRANCH  35  38
ENDBRANCH  33  34
BRANCH  33  44
ATOM     44  C27 UNL     1     155.095 161.675 173.040  0.00  0.00    +0.000 C 
ATOM     45  C28 UNL     1     155.225 162.773 172.032  0.00  0.00    +0.000 C 
ATOM     46  C29 UNL     1     156.490 161.451 173.651  0.00  0.00    +0.000 C 
ENDBRANCH  33  44
ENDBRANCH  31  33
ENDBRANCH  30  31
ENDBRANCH   1  30
TORSDOF 16
ENDMDL
MODEL 5
REMARK VINA RESULT:      -6.1      3.062      8.644
REMARK  Name = ./3D_structures\o22_MMV1580491_3D.pdb
REMARK  20 active torsions:
REMARK  status: ('A' for Active; 'I' for Inactive)
REMARK    1  A    between atoms: C4_5  and  C5_6
REMARK    2  A    between atoms: C5_6  and  C6_7
REMARK    3  A    between atoms: C6_7  and  C7_8
REMARK    4  A    between atoms: C6_7  and  C19_26
REMARK    5  A    between atoms: N1_10  and  C8_11
REMARK    6  A    between atoms: C8_11  and  C9_12
REMARK    7  A    between atoms: C8_11  and  C14_19
REMARK    8  A    between atoms: C10_13  and  C11_14
REMARK    9  A    between atoms: C11_14  and  O3_16
REMARK   10  A    between atoms: O3_16  and  C12_17
REMARK   11  A    between atoms: C12_17  and  C13_18
REMARK   12  A    between atoms: C14_19  and  C15_20
REMARK   13  A    between atoms: C19_26  and  C20_27
REMARK   14  A    between atoms: C20_27  and  C21_29
REMARK   15  A    between atoms: C21_29  and  N3_30
REMARK   16  A    between atoms: C21_29  and  C27_39
REMARK   17  A    between atoms: C22_31  and  C23_33
REMARK   18  A    between atoms: C24_36  and  C26_38
REMARK   19  A    between atoms: C27_39  and  C28_40
REMARK   20  A    between atoms: C27_39  and  C29_41
REMARK                            x       y       z     vdW  Elec       q    Type
REMARK                         _______ _______ _______ _____ _____    ______ ____
ROOT
ATOM      1  C6  UNL     1     151.501 159.199 169.529  0.00  0.00    +0.000 C 
ENDROOT
BRANCH   1   2
ATOM      2  C7  UNL     1     151.656 159.410 171.033  0.00  0.00    +0.000 C 
ATOM      3  O1  UNL     1     150.958 158.708 171.795  0.00  0.00    +0.000 OA
ATOM      4  N1  UNL     1     152.528 160.337 171.580  0.00  0.00    +0.000 N 
ATOM      5  H6  UNL     1     153.098 160.923 170.981  0.00  0.00    +0.000 HD
BRANCH   4   6
ATOM      6  C8  UNL     1     152.631 160.479 173.017  0.00  0.00    +0.000 C 
BRANCH   6   7
ATOM      7  C9  UNL     1     152.085 161.814 173.378  0.00  0.00    +0.000 C 
ATOM      8  C10 UNL     1     152.272 162.889 172.642  0.00  0.00    +0.000 C 
BRANCH   8   9
ATOM      9  C11 UNL     1     151.717 164.199 173.024  0.00  0.00    +0.000 C 
ATOM     10  O2  UNL     1     150.630 164.611 172.551  0.00  0.00    +0.000 OA
BRANCH   9  11
ATOM     11  O3  UNL     1     152.399 165.002 173.925  0.00  0.00    +0.000 OA
BRANCH  11  12
ATOM     12  C12 UNL     1     152.793 166.329 173.662  0.00  0.00    +0.000 C 
ATOM     13  C13 UNL     1     153.791 166.246 172.506  0.00  0.00    +0.000 C 
ENDBRANCH  11  12
ENDBRANCH   9  11
ENDBRANCH   8   9
ENDBRANCH   6   7
BRANCH   6  14
ATOM     14  C14 UNL     1     154.089 160.495 173.432  0.00  0.00    +0.000 C 
BRANCH  14  15
ATOM     15  C15 UNL     1     155.008 160.242 172.264  0.00  0.00    +0.000 C 
ATOM     16  C16 UNL     1     155.883 161.435 172.109  0.00  0.00    +0.000 C 
ATOM     17  O4  UNL     1     155.525 162.628 172.074  0.00  0.00    +0.000 OA
ATOM     18  N2  UNL     1     157.243 160.988 172.004  0.00  0.00    +0.000 N 
ATOM     19  C17 UNL     1     157.176 159.588 171.700  0.00  0.00    +0.000 C 
ATOM     20  C18 UNL     1     155.944 159.087 172.469  0.00  0.00    +0.000 C 
ATOM     21  H18 UNL     1     158.090 161.577 172.125  0.00  0.00    +0.000 HD
ENDBRANCH  14  15
ENDBRANCH   6  14
ENDBRANCH   4   6
ENDBRANCH   1   2
BRANCH   1  22
ATOM     22  C5  UNL     1     152.722 159.671 168.924  0.00  0.00    +0.000 C 
BRANCH  22  27
ATOM     23  F1  UNL     1     156.770 156.326 166.963  0.00  0.00    +0.000 F 
ATOM     24  C1  UNL     1     155.794 157.154 167.415  0.00  0.00    +0.000 A 
ATOM     25  C2  UNL     1     155.040 157.942 166.560  0.00  0.00    +0.000 A 
ATOM     26  C3  UNL     1     154.059 158.776 167.002  0.00  0.00    +0.000 A 
ATOM     27  C4  UNL     1     153.761 158.883 168.341  0.00  0.00    +0.000 A 
ATOM     28  C30 UNL     1     154.533 158.080 169.185  0.00  0.00    +0.000 A 
ATOM     29  C31 UNL     1     155.512 157.246 168.753  0.00  0.00    +0.000 A 
ENDBRANCH  22  27
ENDBRANCH   1  22
BRANCH   1  30
ATOM     30  C19 UNL     1     150.167 159.732 169.167  0.00  0.00    +0.000 C 
BRANCH  30  31
ATOM     31  C20 UNL     1     149.985 161.169 168.948  0.00  0.00    +0.000 C 
ATOM     32  O5  UNL     1     149.886 161.979 169.846  0.00  0.00    +0.000 OA
BRANCH  31  33
ATOM     33  C21 UNL     1     149.901 161.754 167.581  0.00  0.00    +0.000 C 
BRANCH  33  34
ATOM     34  N3  UNL     1     149.053 162.901 167.485  0.00  0.00    +0.000 N 
ATOM     35  C22 UNL     1     147.660 162.874 167.289  0.00  0.00    +0.000 C 
ATOM     36  O6  UNL     1     147.117 161.738 167.192  0.00  0.00    +0.000 OA
ATOM     37  H26 UNL     1     149.515 163.833 167.567  0.00  0.00    +0.000 HD
BRANCH  35  38
ATOM     38  C23 UNL     1     146.881 164.104 167.204  0.00  0.00    +0.000 A 
ATOM     39  N4  UNL     1     146.044 164.647 168.108  0.00  0.00    +0.000 NA
ATOM     40  O7  UNL     1     145.542 165.758 167.643  0.00  0.00    +0.000 OA
ATOM     41  C24 UNL     1     145.987 166.021 166.452  0.00  0.00    +0.000 A 
ATOM     42  C25 UNL     1     146.846 164.986 166.137  0.00  0.00    +0.000 A 
ATOM     43  C26 UNL     1     145.638 167.193 165.613  0.00  0.00    +0.000 C 
ENDBRANCH  35  38
ENDBRANCH  33  34
BRANCH  33  44
ATOM     44  C27 UNL     1     151.236 162.117 166.995  0.00  0.00    +0.000 C 
ATOM     45  C28 UNL     1     151.163 163.522 166.488  0.00  0.00    +0.000 C 
ATOM     46  C29 UNL     1     151.399 161.199 165.769  0.00  0.00    +0.000 C 
ENDBRANCH  33  44
ENDBRANCH  31  33
ENDBRANCH  30  31
ENDBRANCH   1  30
TORSDOF 16
ENDMDL
MODEL 6
REMARK VINA RESULT:      -6.1      3.040      5.230
REMARK  Name = ./3D_structures\o22_MMV1580491_3D.pdb
REMARK  20 active torsions:
REMARK  status: ('A' for Active; 'I' for Inactive)
REMARK    1  A    between atoms: C4_5  and  C5_6
REMARK    2  A    between atoms: C5_6  and  C6_7
REMARK    3  A    between atoms: C6_7  and  C7_8
REMARK    4  A    between atoms: C6_7  and  C19_26
REMARK    5  A    between atoms: N1_10  and  C8_11
REMARK    6  A    between atoms: C8_11  and  C9_12
REMARK    7  A    between atoms: C8_11  and  C14_19
REMARK    8  A    between atoms: C10_13  and  C11_14
REMARK    9  A    between atoms: C11_14  and  O3_16
REMARK   10  A    between atoms: O3_16  and  C12_17
REMARK   11  A    between atoms: C12_17  and  C13_18
REMARK   12  A    between atoms: C14_19  and  C15_20
REMARK   13  A    between atoms: C19_26  and  C20_27
REMARK   14  A    between atoms: C20_27  and  C21_29
REMARK   15  A    between atoms: C21_29  and  N3_30
REMARK   16  A    between atoms: C21_29  and  C27_39
REMARK   17  A    between atoms: C22_31  and  C23_33
REMARK   18  A    between atoms: C24_36  and  C26_38
REMARK   19  A    between atoms: C27_39  and  C28_40
REMARK   20  A    between atoms: C27_39  and  C29_41
REMARK                            x       y       z     vdW  Elec       q    Type
REMARK                         _______ _______ _______ _____ _____    ______ ____
ROOT
ATOM      1  C6  UNL     1     152.027 160.639 169.879  0.00  0.00    +0.000 C 
ENDROOT
BRANCH   1   2
ATOM      2  C7  UNL     1     151.117 161.282 168.835  0.00  0.00    +0.000 C 
ATOM      3  O1  UNL     1     150.506 160.527 168.049  0.00  0.00    +0.000 OA
ATOM      4  N1  UNL     1     150.944 162.653 168.725  0.00  0.00    +0.000 N 
ATOM      5  H6  UNL     1     151.436 163.285 169.346  0.00  0.00    +0.000 HD
BRANCH   4   6
ATOM      6  C8  UNL     1     150.058 163.195 167.717  0.00  0.00    +0.000 C 
BRANCH   6   7
ATOM      7  C9  UNL     1     150.901 163.691 166.597  0.00  0.00    +0.000 C 
ATOM      8  C10 UNL     1     150.581 164.739 165.867  0.00  0.00    +0.000 C 
BRANCH   8   9
ATOM      9  C11 UNL     1     151.436 165.209 164.764  0.00  0.00    +0.000 C 
ATOM     10  O2  UNL     1     151.746 166.420 164.648  0.00  0.00    +0.000 OA
BRANCH   9  11
ATOM     11  O3  UNL     1     151.915 164.305 163.829  0.00  0.00    +0.000 OA
BRANCH  11  12
ATOM     12  C12 UNL     1     153.090 163.544 163.992  0.00  0.00    +0.000 C 
ATOM     13  C13 UNL     1     154.189 164.309 163.254  0.00  0.00    +0.000 C 
ENDBRANCH  11  12
ENDBRANCH   9  11
ENDBRANCH   8   9
ENDBRANCH   6   7
BRANCH   6  14
ATOM     14  C14 UNL     1     149.332 164.409 168.265  0.00  0.00    +0.000 C 
BRANCH  14  15
ATOM     15  C15 UNL     1     148.066 164.025 168.988  0.00  0.00    +0.000 C 
ATOM     16  C16 UNL     1     147.913 164.941 170.149  0.00  0.00    +0.000 C 
ATOM     17  O4  UNL     1     148.778 165.226 170.999  0.00  0.00    +0.000 OA
ATOM     18  N2  UNL     1     146.575 165.463 170.140  0.00  0.00    +0.000 N 
ATOM     19  C17 UNL     1     145.824 164.609 169.267  0.00  0.00    +0.000 C 
ATOM     20  C18 UNL     1     146.822 164.208 168.170  0.00  0.00    +0.000 C 
ATOM     21  H18 UNL     1     146.240 166.293 170.668  0.00  0.00    +0.000 HD
ENDBRANCH  14  15
ENDBRANCH   6  14
ENDBRANCH   4   6
ENDBRANCH   1   2
BRANCH   1  22
ATOM     22  C5  UNL     1     152.212 159.269 169.469  0.00  0.00    +0.000 C 
BRANCH  22  27
ATOM     23  F1  UNL     1     156.751 156.671 167.454  0.00  0.00    +0.000 F 
ATOM     24  C1  UNL     1     155.658 157.323 167.924  0.00  0.00    +0.000 A 
ATOM     25  C2  UNL     1     154.969 158.254 167.163  0.00  0.00    +0.000 A 
ATOM     26  C3  UNL     1     153.872 158.914 167.625  0.00  0.00    +0.000 A 
ATOM     27  C4  UNL     1     153.382 158.689 168.891  0.00  0.00    +0.000 A 
ATOM     28  C30 UNL     1     154.091 157.747 169.641  0.00  0.00    +0.000 A 
ATOM     29  C31 UNL     1     155.186 157.084 169.189  0.00  0.00    +0.000 A 
ENDBRANCH  22  27
ENDBRANCH   1  22
BRANCH   1  30
ATOM     30  C19 UNL     1     151.476 161.016 171.202  0.00  0.00    +0.000 C 
BRANCH  30  31
ATOM     31  C20 UNL     1     151.988 160.380 172.418  0.00  0.00    +0.000 C 
ATOM     32  O5  UNL     1     151.376 159.543 173.049  0.00  0.00    +0.000 OA
BRANCH  31  33
ATOM     33  C21 UNL     1     153.322 160.722 172.986  0.00  0.00    +0.000 C 
BRANCH  33  34
ATOM     34  N3  UNL     1     154.427 160.324 172.170  0.00  0.00    +0.000 N 
ATOM     35  C22 UNL     1     155.577 159.653 172.623  0.00  0.00    +0.000 C 
ATOM     36  O6  UNL     1     155.634 159.382 173.855  0.00  0.00    +0.000 OA
ATOM     37  H26 UNL     1     154.367 160.555 171.155  0.00  0.00    +0.000 HD
BRANCH  35  38
ATOM     38  C23 UNL     1     156.654 159.290 171.709  0.00  0.00    +0.000 A 
ATOM     39  N4  UNL     1     157.494 158.238 171.756  0.00  0.00    +0.000 NA
ATOM     40  O7  UNL     1     158.317 158.277 170.745  0.00  0.00    +0.000 OA
ATOM     41  C24 UNL     1     158.096 159.307 169.989  0.00  0.00    +0.000 A 
ATOM     42  C25 UNL     1     157.039 159.980 170.571  0.00  0.00    +0.000 A 
ATOM     43  C26 UNL     1     158.832 159.677 168.755  0.00  0.00    +0.000 C 
ENDBRANCH  35  38
ENDBRANCH  33  34
BRANCH  33  44
ATOM     44  C27 UNL     1     153.486 162.182 173.304  0.00  0.00    +0.000 C 
ATOM     45  C28 UNL     1     152.138 162.755 173.602  0.00  0.00    +0.000 C 
ATOM     46  C29 UNL     1     153.973 162.825 171.992  0.00  0.00    +0.000 C 
ENDBRANCH  33  44
ENDBRANCH  31  33
ENDBRANCH  30  31
ENDBRANCH   1  30
TORSDOF 16
ENDMDL
MODEL 7
REMARK VINA RESULT:      -6.1      2.989      4.942
REMARK  Name = ./3D_structures\o22_MMV1580491_3D.pdb
REMARK  20 active torsions:
REMARK  status: ('A' for Active; 'I' for Inactive)
REMARK    1  A    between atoms: C4_5  and  C5_6
REMARK    2  A    between atoms: C5_6  and  C6_7
REMARK    3  A    between atoms: C6_7  and  C7_8
REMARK    4  A    between atoms: C6_7  and  C19_26
REMARK    5  A    between atoms: N1_10  and  C8_11
REMARK    6  A    between atoms: C8_11  and  C9_12
REMARK    7  A    between atoms: C8_11  and  C14_19
REMARK    8  A    between atoms: C10_13  and  C11_14
REMARK    9  A    between atoms: C11_14  and  O3_16
REMARK   10  A    between atoms: O3_16  and  C12_17
REMARK   11  A    between atoms: C12_17  and  C13_18
REMARK   12  A    between atoms: C14_19  and  C15_20
REMARK   13  A    between atoms: C19_26  and  C20_27
REMARK   14  A    between atoms: C20_27  and  C21_29
REMARK   15  A    between atoms: C21_29  and  N3_30
REMARK   16  A    between atoms: C21_29  and  C27_39
REMARK   17  A    between atoms: C22_31  and  C23_33
REMARK   18  A    between atoms: C24_36  and  C26_38
REMARK   19  A    between atoms: C27_39  and  C28_40
REMARK   20  A    between atoms: C27_39  and  C29_41
REMARK                            x       y       z     vdW  Elec       q    Type
REMARK                         _______ _______ _______ _____ _____    ______ ____
ROOT
ATOM      1  C6  UNL     1     154.535 158.835 167.448  0.00  0.00    +0.000 C 
ENDROOT
BRANCH   1   2
ATOM      2  C7  UNL     1     153.642 159.450 168.522  0.00  0.00    +0.000 C 
ATOM      3  O1  UNL     1     154.074 160.447 169.141  0.00  0.00    +0.000 OA
ATOM      4  N1  UNL     1     152.387 158.955 168.837  0.00  0.00    +0.000 N 
ATOM      5  H6  UNL     1     152.019 158.142 168.355  0.00  0.00    +0.000 HD
BRANCH   4   6
ATOM      6  C8  UNL     1     151.589 159.593 169.862  0.00  0.00    +0.000 C 
BRANCH   6   7
ATOM      7  C9  UNL     1     151.250 158.561 170.877  0.00  0.00    +0.000 C 
ATOM      8  C10 UNL     1     150.129 157.871 170.854  0.00  0.00    +0.000 C 
BRANCH   8   9
ATOM      9  C11 UNL     1     149.822 156.852 171.873  0.00  0.00    +0.000 C 
ATOM     10  O2  UNL     1     149.870 157.119 173.099  0.00  0.00    +0.000 OA
BRANCH   9  11
ATOM     11  O3  UNL     1     149.472 155.570 171.483  0.00  0.00    +0.000 OA
BRANCH  11  12
ATOM     12  C12 UNL     1     150.337 154.460 171.540  0.00  0.00    +0.000 C 
ATOM     13  C13 UNL     1     149.588 153.311 170.862  0.00  0.00    +0.000 C 
ENDBRANCH  11  12
ENDBRANCH   9  11
ENDBRANCH   8   9
ENDBRANCH   6   7
BRANCH   6  14
ATOM     14  C14 UNL     1     150.268 160.055 169.277  0.00  0.00    +0.000 C 
BRANCH  14  15
ATOM     15  C15 UNL     1     150.467 161.015 168.133  0.00  0.00    +0.000 C 
ATOM     16  C16 UNL     1     149.138 161.261 167.512  0.00  0.00    +0.000 C 
ATOM     17  O4  UNL     1     148.302 160.404 167.163  0.00  0.00    +0.000 OA
ATOM     18  N2  UNL     1     148.959 162.679 167.372  0.00  0.00    +0.000 N 
ATOM     19  C17 UNL     1     150.263 163.258 167.518  0.00  0.00    +0.000 C 
ATOM     20  C18 UNL     1     150.964 162.366 168.555  0.00  0.00    +0.000 C 
ATOM     21  H18 UNL     1     148.058 163.166 167.199  0.00  0.00    +0.000 HD
ENDBRANCH  14  15
ENDBRANCH   6  14
ENDBRANCH   4   6
ENDBRANCH   1   2
BRANCH   1  22
ATOM     22  C5  UNL     1     153.888 159.093 166.185  0.00  0.00    +0.000 C 
BRANCH  22  27
ATOM     23  F1  UNL     1     153.181 164.095 163.755  0.00  0.00    +0.000 F 
ATOM     24  C1  UNL     1     153.325 162.885 164.354  0.00  0.00    +0.000 A 
ATOM     25  C2  UNL     1     152.249 162.042 164.581  0.00  0.00    +0.000 A 
ATOM     26  C3  UNL     1     152.382 160.828 165.182  0.00  0.00    +0.000 A 
ATOM     27  C4  UNL     1     153.609 160.366 165.600  0.00  0.00    +0.000 A 
ATOM     28  C30 UNL     1     154.679 161.232 165.361  0.00  0.00    +0.000 A 
ATOM     29  C31 UNL     1     154.557 162.445 164.763  0.00  0.00    +0.000 A 
ENDBRANCH  22  27
ENDBRANCH   1  22
BRANCH   1  30
ATOM     30  C19 UNL     1     154.870 157.470 167.915  0.00  0.00    +0.000 C 
BRANCH  30  31
ATOM     31  C20 UNL     1     156.021 157.257 168.796  0.00  0.00    +0.000 C 
ATOM     32  O5  UNL     1     155.928 156.881 169.946  0.00  0.00    +0.000 OA
BRANCH  31  33
ATOM     33  C21 UNL     1     157.418 157.498 168.340  0.00  0.00    +0.000 C 
BRANCH  33  34
ATOM     34  N3  UNL     1     157.521 158.003 167.006  0.00  0.00    +0.000 N 
ATOM     35  C22 UNL     1     157.729 157.225 165.852  0.00  0.00    +0.000 C 
ATOM     36  O6  UNL     1     157.832 155.977 166.012  0.00  0.00    +0.000 OA
ATOM     37  H26 UNL     1     157.435 159.035 166.888  0.00  0.00    +0.000 HD
BRANCH  35  38
ATOM     38  C23 UNL     1     157.821 157.836 164.531  0.00  0.00    +0.000 A 
ATOM     39  N4  UNL     1     158.211 157.290 163.364  0.00  0.00    +0.000 NA
ATOM     40  O7  UNL     1     158.151 158.178 162.410  0.00  0.00    +0.000 OA
ATOM     41  C24 UNL     1     157.737 159.326 162.853  0.00  0.00    +0.000 A 
ATOM     42  C25 UNL     1     157.514 159.147 164.205  0.00  0.00    +0.000 A 
ATOM     43  C26 UNL     1     157.545 160.566 162.062  0.00  0.00    +0.000 C 
ENDBRANCH  35  38
ENDBRANCH  33  34
BRANCH  33  44
ATOM     44  C27 UNL     1     158.199 158.413 169.240  0.00  0.00    +0.000 C 
ATOM     45  C28 UNL     1     157.632 159.792 169.119  0.00  0.00    +0.000 C 
ATOM     46  C29 UNL     1     159.617 158.450 168.642  0.00  0.00    +0.000 C 
ENDBRANCH  33  44
ENDBRANCH  31  33
ENDBRANCH  30  31
ENDBRANCH   1  30
TORSDOF 16
ENDMDL
MODEL 8
REMARK VINA RESULT:      -6.1      3.047      5.188
REMARK  Name = ./3D_structures\o22_MMV1580491_3D.pdb
REMARK  20 active torsions:
REMARK  status: ('A' for Active; 'I' for Inactive)
REMARK    1  A    between atoms: C4_5  and  C5_6
REMARK    2  A    between atoms: C5_6  and  C6_7
REMARK    3  A    between atoms: C6_7  and  C7_8
REMARK    4  A    between atoms: C6_7  and  C19_26
REMARK    5  A    between atoms: N1_10  and  C8_11
REMARK    6  A    between atoms: C8_11  and  C9_12
REMARK    7  A    between atoms: C8_11  and  C14_19
REMARK    8  A    between atoms: C10_13  and  C11_14
REMARK    9  A    between atoms: C11_14  and  O3_16
REMARK   10  A    between atoms: O3_16  and  C12_17
REMARK   11  A    between atoms: C12_17  and  C13_18
REMARK   12  A    between atoms: C14_19  and  C15_20
REMARK   13  A    between atoms: C19_26  and  C20_27
REMARK   14  A    between atoms: C20_27  and  C21_29
REMARK   15  A    between atoms: C21_29  and  N3_30
REMARK   16  A    between atoms: C21_29  and  C27_39
REMARK   17  A    between atoms: C22_31  and  C23_33
REMARK   18  A    between atoms: C24_36  and  C26_38
REMARK   19  A    between atoms: C27_39  and  C28_40
REMARK   20  A    between atoms: C27_39  and  C29_41
REMARK                            x       y       z     vdW  Elec       q    Type
REMARK                         _______ _______ _______ _____ _____    ______ ____
ROOT
ATOM      1  C6  UNL     1     153.494 160.081 166.774  0.00  0.00    +0.000 C 
ENDROOT
BRANCH   1   2
ATOM      2  C7  UNL     1     153.170 159.500 168.148  0.00  0.00    +0.000 C 
ATOM      3  O1  UNL     1     153.647 158.381 168.437  0.00  0.00    +0.000 OA
ATOM      4  N1  UNL     1     152.377 160.154 169.078  0.00  0.00    +0.000 N 
ATOM      5  H6  UNL     1     151.971 161.058 168.862  0.00  0.00    +0.000 HD
BRANCH   4   6
ATOM      6  C8  UNL     1     152.117 159.549 170.366  0.00  0.00    +0.000 C 
BRANCH   6   7
ATOM      7  C9  UNL     1     150.767 158.927 170.308  0.00  0.00    +0.000 C 
ATOM      8  C10 UNL     1     150.471 157.796 170.913  0.00  0.00    +0.000 C 
BRANCH   8   9
ATOM      9  C11 UNL     1     149.124 157.205 170.840  0.00  0.00    +0.000 C 
ATOM     10  O2  UNL     1     148.876 156.081 171.342  0.00  0.00    +0.000 OA
BRANCH   9  11
ATOM     11  O3  UNL     1     148.101 157.893 170.207  0.00  0.00    +0.000 OA
BRANCH  11  12
ATOM     12  C12 UNL     1     147.039 157.277 169.517  0.00  0.00    +0.000 C 
ATOM     13  C13 UNL     1     147.220 157.658 168.047  0.00  0.00    +0.000 C 
ENDBRANCH  11  12
ENDBRANCH   9  11
ENDBRANCH   8   9
ENDBRANCH   6   7
BRANCH   6  14
ATOM     14  C14 UNL     1     152.039 160.621 171.436  0.00  0.00    +0.000 C 
BRANCH  14  15
ATOM     15  C15 UNL     1     152.599 161.935 170.954  0.00  0.00    +0.000 C 
ATOM     16  C16 UNL     1     151.454 162.847 170.693  0.00  0.00    +0.000 C 
ATOM     17  O4  UNL     1     150.428 162.593 170.033  0.00  0.00    +0.000 OA
ATOM     18  N2  UNL     1     151.719 164.102 171.338  0.00  0.00    +0.000 N 
ATOM     19  C17 UNL     1     153.122 164.106 171.635  0.00  0.00    +0.000 C 
ATOM     20  C18 UNL     1     153.446 162.642 171.971  0.00  0.00    +0.000 C 
ATOM     21  H18 UNL     1     151.020 164.845 171.539  0.00  0.00    +0.000 HD
ENDBRANCH  14  15
ENDBRANCH   6  14
ENDBRANCH   4   6
ENDBRANCH   1   2
BRANCH   1  22
ATOM     22  C5  UNL     1     152.259 160.617 166.258  0.00  0.00    +0.000 C 
BRANCH  22  27
ATOM     23  F1  UNL     1     151.465 165.824 164.341  0.00  0.00    +0.000 F 
ATOM     24  C1  UNL     1     151.654 164.553 164.778  0.00  0.00    +0.000 A 
ATOM     25  C2  UNL     1     152.192 163.567 163.967  0.00  0.00    +0.000 A 
ATOM     26  C3  UNL     1     152.385 162.289 164.394  0.00  0.00    +0.000 A 
ATOM     27  C4  UNL     1     152.052 161.903 165.672  0.00  0.00    +0.000 A 
ATOM     28  C30 UNL     1     151.512 162.914 166.473  0.00  0.00    +0.000 A 
ATOM     29  C31 UNL     1     151.315 164.190 166.055  0.00  0.00    +0.000 A 
ENDBRANCH  22  27
ENDBRANCH   1  22
BRANCH   1  30
ATOM     30  C19 UNL     1     154.284 159.050 166.061  0.00  0.00    +0.000 C 
BRANCH  30  31
ATOM     31  C20 UNL     1     155.660 159.336 165.647  0.00  0.00    +0.000 C 
ATOM     32  O5  UNL     1     155.946 160.067 164.721  0.00  0.00    +0.000 OA
BRANCH  31  33
ATOM     33  C21 UNL     1     156.833 158.735 166.341  0.00  0.00    +0.000 C 
BRANCH  33  34
ATOM     34  N3  UNL     1     156.647 158.540 167.745  0.00  0.00    +0.000 N 
ATOM     35  C22 UNL     1     156.991 159.462 168.751  0.00  0.00    +0.000 C 
ATOM     36  O6  UNL     1     157.507 160.552 168.377  0.00  0.00    +0.000 OA
ATOM     37  H26 UNL     1     156.221 157.635 168.040  0.00  0.00    +0.000 HD
BRANCH  35  38
ATOM     38  C23 UNL     1     156.761 159.168 170.161  0.00  0.00    +0.000 A 
ATOM     39  N4  UNL     1     157.194 158.126 170.897  0.00  0.00    +0.000 NA
ATOM     40  O7  UNL     1     156.766 158.236 172.124  0.00  0.00    +0.000 OA
ATOM     41  C24 UNL     1     156.051 159.306 172.286  0.00  0.00    +0.000 A 
ATOM     42  C25 UNL     1     156.025 159.930 171.054  0.00  0.00    +0.000 A 
ATOM     43  C26 UNL     1     155.401 159.758 173.541  0.00  0.00    +0.000 C 
ENDBRANCH  35  38
ENDBRANCH  33  34
BRANCH  33  44
ATOM     44  C27 UNL     1     157.281 157.429 165.749  0.00  0.00    +0.000 C 
ATOM     45  C28 UNL     1     157.368 156.418 166.848  0.00  0.00    +0.000 C 
ATOM     46  C29 UNL     1     158.716 157.686 165.253  0.00  0.00    +0.000 C 
ENDBRANCH  33  44
ENDBRANCH  31  33
ENDBRANCH  30  31
ENDBRANCH   1  30
TORSDOF 16
ENDMDL
MODEL 9
REMARK VINA RESULT:      -6.0      2.966      5.215
REMARK  Name = ./3D_structures\o22_MMV1580491_3D.pdb
REMARK  20 active torsions:
REMARK  status: ('A' for Active; 'I' for Inactive)
REMARK    1  A    between atoms: C4_5  and  C5_6
REMARK    2  A    between atoms: C5_6  and  C6_7
REMARK    3  A    between atoms: C6_7  and  C7_8
REMARK    4  A    between atoms: C6_7  and  C19_26
REMARK    5  A    between atoms: N1_10  and  C8_11
REMARK    6  A    between atoms: C8_11  and  C9_12
REMARK    7  A    between atoms: C8_11  and  C14_19
REMARK    8  A    between atoms: C10_13  and  C11_14
REMARK    9  A    between atoms: C11_14  and  O3_16
REMARK   10  A    between atoms: O3_16  and  C12_17
REMARK   11  A    between atoms: C12_17  and  C13_18
REMARK   12  A    between atoms: C14_19  and  C15_20
REMARK   13  A    between atoms: C19_26  and  C20_27
REMARK   14  A    between atoms: C20_27  and  C21_29
REMARK   15  A    between atoms: C21_29  and  N3_30
REMARK   16  A    between atoms: C21_29  and  C27_39
REMARK   17  A    between atoms: C22_31  and  C23_33
REMARK   18  A    between atoms: C24_36  and  C26_38
REMARK   19  A    between atoms: C27_39  and  C28_40
REMARK   20  A    between atoms: C27_39  and  C29_41
REMARK                            x       y       z     vdW  Elec       q    Type
REMARK                         _______ _______ _______ _____ _____    ______ ____
ROOT
ATOM      1  C6  UNL     1     150.945 161.322 167.382  0.00  0.00    +0.000 C 
ENDROOT
BRANCH   1   2
ATOM      2  C7  UNL     1     150.374 162.729 167.224  0.00  0.00    +0.000 C 
ATOM      3  O1  UNL     1     150.962 163.514 166.451  0.00  0.00    +0.000 OA
ATOM      4  N1  UNL     1     149.242 163.165 167.895  0.00  0.00    +0.000 N 
ATOM      5  H6  UNL     1     148.754 162.548 168.535  0.00  0.00    +0.000 HD
BRANCH   4   6
ATOM      6  C8  UNL     1     148.749 164.510 167.692  0.00  0.00    +0.000 C 
BRANCH   6   7
ATOM      7  C9  UNL     1     149.282 165.357 168.793  0.00  0.00    +0.000 C 
ATOM      8  C10 UNL     1     149.143 165.050 170.066  0.00  0.00    +0.000 C 
BRANCH   8   9
ATOM      9  C11 UNL     1     149.684 165.907 171.135  0.00  0.00    +0.000 C 
ATOM     10  O2  UNL     1     149.660 167.159 171.043  0.00  0.00    +0.000 OA
BRANCH   9  11
ATOM     11  O3  UNL     1     150.232 165.332 172.270  0.00  0.00    +0.000 OA
BRANCH  11  12
ATOM     12  C12 UNL     1     151.497 165.662 172.794  0.00  0.00    +0.000 C 
ATOM     13  C13 UNL     1     152.517 164.966 171.892  0.00  0.00    +0.000 C 
ENDBRANCH  11  12
ENDBRANCH   9  11
ENDBRANCH   8   9
ENDBRANCH   6   7
BRANCH   6  14
ATOM     14  C14 UNL     1     147.240 164.536 167.836  0.00  0.00    +0.000 C 
BRANCH  14  15
ATOM     15  C15 UNL     1     146.641 163.158 167.710  0.00  0.00    +0.000 C 
ATOM     16  C16 UNL     1     145.840 162.900 168.936  0.00  0.00    +0.000 C 
ATOM     17  O4  UNL     1     146.202 163.064 170.118  0.00  0.00    +0.000 OA
ATOM     18  N2  UNL     1     144.547 162.419 168.538  0.00  0.00    +0.000 N 
ATOM     19  C17 UNL     1     144.680 162.015 167.169  0.00  0.00    +0.000 C 
ATOM     20  C18 UNL     1     145.678 163.018 166.569  0.00  0.00    +0.000 C 
ATOM     21  H18 UNL     1     143.700 162.379 169.138  0.00  0.00    +0.000 HD
ENDBRANCH  14  15
ENDBRANCH   6  14
ENDBRANCH   4   6
ENDBRANCH   1   2
BRANCH   1  22
ATOM     22  C5  UNL     1     150.238 160.717 168.484  0.00  0.00    +0.000 C 
BRANCH  22  27
ATOM     23  F1  UNL     1     152.117 159.720 173.670  0.00  0.00    +0.000 F 
ATOM     24  C1  UNL     1     151.656 159.989 172.422  0.00  0.00    +0.000 A 
ATOM     25  C2  UNL     1     151.694 161.264 171.880  0.00  0.00    +0.000 A 
ATOM     26  C3  UNL     1     151.234 161.545 170.630  0.00  0.00    +0.000 A 
ATOM     27  C4  UNL     1     150.698 160.564 169.828  0.00  0.00    +0.000 A 
ATOM     28  C30 UNL     1     150.669 159.287 170.394  0.00  0.00    +0.000 A 
ATOM     29  C31 UNL     1     151.126 158.997 171.639  0.00  0.00    +0.000 A 
ENDBRANCH  22  27
ENDBRANCH   1  22
BRANCH   1  30
ATOM     30  C19 UNL     1     152.419 161.464 167.355  0.00  0.00    +0.000 C 
BRANCH  30  31
ATOM     31  C20 UNL     1     153.260 160.321 166.992  0.00  0.00    +0.000 C 
ATOM     32  O5  UNL     1     153.326 159.862 165.870  0.00  0.00    +0.000 OA
BRANCH  31  33
ATOM     33  C21 UNL     1     154.109 159.617 167.993  0.00  0.00    +0.000 C 
BRANCH  33  34
ATOM     34  N3  UNL     1     155.312 159.062 167.456  0.00  0.00    +0.000 N 
ATOM     35  C22 UNL     1     155.567 157.690 167.269  0.00  0.00    +0.000 C 
ATOM     36  O6  UNL     1     154.653 156.887 167.607  0.00  0.00    +0.000 OA
ATOM     37  H26 UNL     1     156.059 159.737 167.182  0.00  0.00    +0.000 HD
BRANCH  35  38
ATOM     38  C23 UNL     1     156.830 157.221 166.712  0.00  0.00    +0.000 A 
ATOM     39  N4  UNL     1     158.076 157.691 166.911  0.00  0.00    +0.000 NA
ATOM     40  O7  UNL     1     158.935 156.989 166.224  0.00  0.00    +0.000 OA
ATOM     41  C24 UNL     1     158.350 156.048 165.549  0.00  0.00    +0.000 A 
ATOM     42  C25 UNL     1     157.003 156.163 165.835  0.00  0.00    +0.000 A 
ATOM     43  C26 UNL     1     159.003 155.058 164.657  0.00  0.00    +0.000 C 
ENDBRANCH  35  38
ENDBRANCH  33  34
BRANCH  33  44
ATOM     44  C27 UNL     1     154.483 160.469 169.174  0.00  0.00    +0.000 C 
ATOM     45  C28 UNL     1     155.846 161.035 168.936  0.00  0.00    +0.000 C 
ATOM     46  C29 UNL     1     154.597 159.488 170.355  0.00  0.00    +0.000 C 
ENDBRANCH  33  44
ENDBRANCH  31  33
ENDBRANCH  30  31
ENDBRANCH   1  30
TORSDOF 16
ENDMDL
