MODEL 1
REMARK VINA RESULT:      -6.5      0.000      0.000
REMARK  Name = ./3D_structures\o23_MMV1580492_3D.pdb
REMARK  11 active torsions:
REMARK  status: ('A' for Active; 'I' for Inactive)
REMARK    1  A    between atoms: C1_3  and  C2_4
REMARK    2  A    between atoms: C8_10  and  N2_11
REMARK    3  A    between atoms: N2_11  and  C9_12
REMARK    4  A    between atoms: C9_12  and  C10_13
REMARK    5  A    between atoms: C10_13  and  O2_14
REMARK    6  A    between atoms: C13_18  and  C14_19
REMARK    7  A    between atoms: C16_21  and  C23_29
REMARK    8  A    between atoms: C17_22  and  O3_23
REMARK    9  A    between atoms: O3_23  and  C18_24
REMARK   10  A    between atoms: C18_24  and  C19_25
REMARK   11  A    between atoms: C18_24  and  C20_26
REMARK                            x       y       z     vdW  Elec       q    Type
REMARK                         _______ _______ _______ _____ _____    ______ ____
ROOT
ATOM      1  O1  UNL     1     150.708 163.299 168.074  0.00  0.00    +0.000 OA
ATOM      2  N1  UNL     1     151.812 162.647 168.074  0.00  0.00    +0.000 NA
ATOM      3  C1  UNL     1     151.635 161.484 167.459  0.00  0.00    +0.000 A 
ATOM      4  N3  UNL     1     150.345 161.453 167.074  0.00  0.00    +0.000 NA
ATOM      5  C13 UNL     1     149.761 162.594 167.460  0.00  0.00    +0.000 A 
ENDROOT
BRANCH   3   6
ATOM      6  C2  UNL     1     152.665 160.468 167.255  0.00  0.00    +0.000 A 
ATOM      7  C3  UNL     1     152.924 159.554 168.254  0.00  0.00    +0.000 A 
ATOM      8  C4  UNL     1     153.910 158.609 168.032  0.00  0.00    +0.000 A 
ATOM      9  C5  UNL     1     154.602 158.596 166.840  0.00  0.00    +0.000 A 
ATOM     10  C6  UNL     1     154.358 159.501 165.829  0.00  0.00    +0.000 A 
ATOM     11  C7  UNL     1     153.378 160.441 166.049  0.00  0.00    +0.000 A 
ATOM     12  C8  UNL     1     154.001 157.762 169.238  0.00  0.00    +0.000 C 
ATOM     13  C11 UNL     1     152.568 157.833 169.769  0.00  0.00    +0.000 C 
ATOM     14  C12 UNL     1     152.332 159.344 169.611  0.00  0.00    +0.000 C 
BRANCH  12  15
ATOM     15  N2  UNL     1     154.805 158.459 170.224  0.00  0.00    +0.000 NA
ATOM     16  H5  UNL     1     154.245 158.842 171.017  0.00  0.00    +0.000 HD
BRANCH  15  17
ATOM     17  C9  UNL     1     155.972 157.741 170.649  0.00  0.00    +0.000 C 
BRANCH  17  18
ATOM     18  C10 UNL     1     157.161 158.654 170.385  0.00  0.00    +0.000 C 
BRANCH  18  19
ATOM     19  O2  UNL     1     158.288 158.231 171.075  0.00  0.00    +0.000 OA
ATOM     20  H10 UNL     1     158.984 158.931 170.921  0.00  0.00    +0.000 HD
ENDBRANCH  18  19
ENDBRANCH  17  18
ENDBRANCH  15  17
ENDBRANCH  12  15
ENDBRANCH   3   6
BRANCH   5  21
ATOM     21  C14 UNL     1     148.394 163.065 167.296  0.00  0.00    +0.000 A 
ATOM     22  C15 UNL     1     148.145 164.317 166.794  0.00  0.00    +0.000 A 
ATOM     23  C16 UNL     1     146.881 164.804 166.628  0.00  0.00    +0.000 A 
ATOM     24  C17 UNL     1     145.778 164.057 166.958  0.00  0.00    +0.000 A 
ATOM     25  C21 UNL     1     146.051 162.768 167.475  0.00  0.00    +0.000 A 
ATOM     26  C22 UNL     1     147.311 162.286 167.639  0.00  0.00    +0.000 A 
BRANCH  23  27
ATOM     27  C23 UNL     1     146.798 166.144 166.088  0.00  0.00    +0.000 C 
ATOM     28  N4  UNL     1     146.752 167.205 165.655  0.00  0.00    +0.000 NA
ENDBRANCH  23  27
BRANCH  24  29
ATOM     29  O3  UNL     1     144.527 164.479 166.817  0.00  0.00    +0.000 OA
BRANCH  29  30
ATOM     30  C18 UNL     1     143.457 164.442 166.027  0.00  0.00    +0.000 C 
ATOM     31  C19 UNL     1     143.138 165.837 165.469  0.00  0.00    +0.000 C 
ATOM     32  C20 UNL     1     143.713 163.594 164.746  0.00  0.00    +0.000 C 
ENDBRANCH  29  30
ENDBRANCH  24  29
ENDBRANCH   5  21
TORSDOF 9
ENDMDL
MODEL 2
REMARK VINA RESULT:      -6.4      1.614      2.071
REMARK  Name = ./3D_structures\o23_MMV1580492_3D.pdb
REMARK  11 active torsions:
REMARK  status: ('A' for Active; 'I' for Inactive)
REMARK    1  A    between atoms: C1_3  and  C2_4
REMARK    2  A    between atoms: C8_10  and  N2_11
REMARK    3  A    between atoms: N2_11  and  C9_12
REMARK    4  A    between atoms: C9_12  and  C10_13
REMARK    5  A    between atoms: C10_13  and  O2_14
REMARK    6  A    between atoms: C13_18  and  C14_19
REMARK    7  A    between atoms: C16_21  and  C23_29
REMARK    8  A    between atoms: C17_22  and  O3_23
REMARK    9  A    between atoms: O3_23  and  C18_24
REMARK   10  A    between atoms: C18_24  and  C19_25
REMARK   11  A    between atoms: C18_24  and  C20_26
REMARK                            x       y       z     vdW  Elec       q    Type
REMARK                         _______ _______ _______ _____ _____    ______ ____
ROOT
ATOM      1  O1  UNL     1     152.384 163.574 167.164  0.00  0.00    +0.000 OA
ATOM      2  N1  UNL     1     153.321 162.700 167.134  0.00  0.00    +0.000 NA
ATOM      3  C1  UNL     1     152.787 161.487 167.059  0.00  0.00    +0.000 A 
ATOM      4  N3  UNL     1     151.453 161.661 167.044  0.00  0.00    +0.000 NA
ATOM      5  C13 UNL     1     151.197 162.974 167.109  0.00  0.00    +0.000 A 
ENDROOT
BRANCH   3   6
ATOM      6  C2  UNL     1     153.537 160.234 167.002  0.00  0.00    +0.000 A 
ATOM      7  C3  UNL     1     153.511 159.377 168.081  0.00  0.00    +0.000 A 
ATOM      8  C4  UNL     1     154.237 158.201 167.996  0.00  0.00    +0.000 A 
ATOM      9  C5  UNL     1     154.958 157.912 166.857  0.00  0.00    +0.000 A 
ATOM     10  C6  UNL     1     154.997 158.756 165.768  0.00  0.00    +0.000 A 
ATOM     11  C7  UNL     1     154.276 159.925 165.851  0.00  0.00    +0.000 A 
ATOM     12  C8  UNL     1     154.055 157.468 169.265  0.00  0.00    +0.000 C 
ATOM     13  C11 UNL     1     152.664 157.937 169.691  0.00  0.00    +0.000 C 
ATOM     14  C12 UNL     1     152.822 159.440 169.406  0.00  0.00    +0.000 C 
BRANCH  12  15
ATOM     15  N2  UNL     1     154.962 158.029 170.248  0.00  0.00    +0.000 NA
ATOM     16  H5  UNL     1     154.550 158.081 171.206  0.00  0.00    +0.000 HD
BRANCH  15  17
ATOM     17  C9  UNL     1     156.280 157.463 170.227  0.00  0.00    +0.000 C 
BRANCH  17  18
ATOM     18  C10 UNL     1     157.245 158.608 170.502  0.00  0.00    +0.000 C 
BRANCH  18  19
ATOM     19  O2  UNL     1     158.525 158.140 170.765  0.00  0.00    +0.000 OA
ATOM     20  H10 UNL     1     158.423 157.448 171.478  0.00  0.00    +0.000 HD
ENDBRANCH  18  19
ENDBRANCH  17  18
ENDBRANCH  15  17
ENDBRANCH  12  15
ENDBRANCH   3   6
BRANCH   5  21
ATOM     21  C14 UNL     1     149.935 163.697 167.124  0.00  0.00    +0.000 A 
ATOM     22  C15 UNL     1     148.897 163.267 167.911  0.00  0.00    +0.000 A 
ATOM     23  C16 UNL     1     147.693 163.909 167.954  0.00  0.00    +0.000 A 
ATOM     24  C17 UNL     1     147.455 165.032 167.203  0.00  0.00    +0.000 A 
ATOM     25  C21 UNL     1     148.534 165.464 166.396  0.00  0.00    +0.000 A 
ATOM     26  C22 UNL     1     149.732 164.822 166.355  0.00  0.00    +0.000 A 
BRANCH  23  27
ATOM     27  C23 UNL     1     146.708 163.321 168.836  0.00  0.00    +0.000 C 
ATOM     28  N4  UNL     1     145.914 162.858 169.522  0.00  0.00    +0.000 NA
ENDBRANCH  23  27
BRANCH  24  29
ATOM     29  O3  UNL     1     146.305 165.697 167.206  0.00  0.00    +0.000 OA
BRANCH  29  30
ATOM     30  C18 UNL     1     145.175 165.904 166.534  0.00  0.00    +0.000 C 
ATOM     31  C19 UNL     1     145.282 167.160 165.656  0.00  0.00    +0.000 C 
ATOM     32  C20 UNL     1     144.899 164.770 165.504  0.00  0.00    +0.000 C 
ENDBRANCH  29  30
ENDBRANCH  24  29
ENDBRANCH   5  21
TORSDOF 9
ENDMDL
MODEL 3
REMARK VINA RESULT:      -6.4      2.167      9.961
REMARK  Name = ./3D_structures\o23_MMV1580492_3D.pdb
REMARK  11 active torsions:
REMARK  status: ('A' for Active; 'I' for Inactive)
REMARK    1  A    between atoms: C1_3  and  C2_4
REMARK    2  A    between atoms: C8_10  and  N2_11
REMARK    3  A    between atoms: N2_11  and  C9_12
REMARK    4  A    between atoms: C9_12  and  C10_13
REMARK    5  A    between atoms: C10_13  and  O2_14
REMARK    6  A    between atoms: C13_18  and  C14_19
REMARK    7  A    between atoms: C16_21  and  C23_29
REMARK    8  A    between atoms: C17_22  and  O3_23
REMARK    9  A    between atoms: O3_23  and  C18_24
REMARK   10  A    between atoms: C18_24  and  C19_25
REMARK   11  A    between atoms: C18_24  and  C20_26
REMARK                            x       y       z     vdW  Elec       q    Type
REMARK                         _______ _______ _______ _____ _____    ______ ____
ROOT
ATOM      1  O1  UNL     1     149.927 161.592 169.746  0.00  0.00    +0.000 OA
ATOM      2  N1  UNL     1     149.059 162.482 169.432  0.00  0.00    +0.000 NA
ATOM      3  C1  UNL     1     149.115 162.708 168.126  0.00  0.00    +0.000 A 
ATOM      4  N3  UNL     1     150.076 161.899 167.643  0.00  0.00    +0.000 NA
ATOM      5  C13 UNL     1     150.587 161.196 168.661  0.00  0.00    +0.000 A 
ENDROOT
BRANCH   3   6
ATOM      6  C2  UNL     1     148.277 163.655 167.393  0.00  0.00    +0.000 A 
ATOM      7  C3  UNL     1     146.995 163.294 167.040  0.00  0.00    +0.000 A 
ATOM      8  C4  UNL     1     146.229 164.211 166.341  0.00  0.00    +0.000 A 
ATOM      9  C5  UNL     1     146.750 165.445 166.018  0.00  0.00    +0.000 A 
ATOM     10  C6  UNL     1     148.030 165.826 166.361  0.00  0.00    +0.000 A 
ATOM     11  C7  UNL     1     148.792 164.914 167.056  0.00  0.00    +0.000 A 
ATOM     12  C8  UNL     1     144.914 163.592 166.078  0.00  0.00    +0.000 C 
ATOM     13  C11 UNL     1     144.778 162.647 167.273  0.00  0.00    +0.000 C 
ATOM     14  C12 UNL     1     146.196 162.050 167.265  0.00  0.00    +0.000 C 
BRANCH  12  15
ATOM     15  N2  UNL     1     145.042 162.726 164.922  0.00  0.00    +0.000 NA
ATOM     16  H5  UNL     1     145.340 161.755 165.165  0.00  0.00    +0.000 HD
BRANCH  15  17
ATOM     17  C9  UNL     1     143.924 162.768 164.025  0.00  0.00    +0.000 C 
BRANCH  17  18
ATOM     18  C10 UNL     1     144.261 161.837 162.869  0.00  0.00    +0.000 C 
BRANCH  18  19
ATOM     19  O2  UNL     1     145.308 160.986 163.194  0.00  0.00    +0.000 OA
ATOM     20  H10 UNL     1     144.921 160.291 163.799  0.00  0.00    +0.000 HD
ENDBRANCH  18  19
ENDBRANCH  17  18
ENDBRANCH  15  17
ENDBRANCH  12  15
ENDBRANCH   3   6
BRANCH   5  21
ATOM     21  C14 UNL     1     151.639 160.191 168.689  0.00  0.00    +0.000 A 
ATOM     22  C15 UNL     1     152.670 160.238 167.785  0.00  0.00    +0.000 A 
ATOM     23  C16 UNL     1     153.675 159.314 167.768  0.00  0.00    +0.000 A 
ATOM     24  C17 UNL     1     153.709 158.278 168.667  0.00  0.00    +0.000 A 
ATOM     25  C21 UNL     1     152.640 158.243 169.593  0.00  0.00    +0.000 A 
ATOM     26  C22 UNL     1     151.640 159.163 169.606  0.00  0.00    +0.000 A 
BRANCH  23  27
ATOM     27  C23 UNL     1     154.682 159.512 166.747  0.00  0.00    +0.000 C 
ATOM     28  N4  UNL     1     155.465 159.672 165.924  0.00  0.00    +0.000 NA
ENDBRANCH  23  27
BRANCH  24  29
ATOM     29  O3  UNL     1     154.662 157.354 168.697  0.00  0.00    +0.000 OA
BRANCH  29  30
ATOM     30  C18 UNL     1     155.801 156.996 169.284  0.00  0.00    +0.000 C 
ATOM     31  C19 UNL     1     156.946 156.926 168.261  0.00  0.00    +0.000 C 
ATOM     32  C20 UNL     1     156.292 158.070 170.298  0.00  0.00    +0.000 C 
ENDBRANCH  29  30
ENDBRANCH  24  29
ENDBRANCH   5  21
TORSDOF 9
ENDMDL
MODEL 4
REMARK VINA RESULT:      -6.1      2.369     10.149
REMARK  Name = ./3D_structures\o23_MMV1580492_3D.pdb
REMARK  11 active torsions:
REMARK  status: ('A' for Active; 'I' for Inactive)
REMARK    1  A    between atoms: C1_3  and  C2_4
REMARK    2  A    between atoms: C8_10  and  N2_11
REMARK    3  A    between atoms: N2_11  and  C9_12
REMARK    4  A    between atoms: C9_12  and  C10_13
REMARK    5  A    between atoms: C10_13  and  O2_14
REMARK    6  A    between atoms: C13_18  and  C14_19
REMARK    7  A    between atoms: C16_21  and  C23_29
REMARK    8  A    between atoms: C17_22  and  O3_23
REMARK    9  A    between atoms: O3_23  and  C18_24
REMARK   10  A    between atoms: C18_24  and  C19_25
REMARK   11  A    between atoms: C18_24  and  C20_26
REMARK                            x       y       z     vdW  Elec       q    Type
REMARK                         _______ _______ _______ _____ _____    ______ ____
ROOT
ATOM      1  O1  UNL     1     152.715 162.608 166.729  0.00  0.00    +0.000 OA
ATOM      2  N1  UNL     1     151.915 163.525 167.129  0.00  0.00    +0.000 NA
ATOM      3  C1  UNL     1     151.255 163.097 168.198  0.00  0.00    +0.000 A 
ATOM      4  N3  UNL     1     151.698 161.850 168.440  0.00  0.00    +0.000 NA
ATOM      5  C13 UNL     1     152.617 161.540 167.517  0.00  0.00    +0.000 A 
ENDROOT
BRANCH   3   6
ATOM      6  C2  UNL     1     150.257 163.863 168.941  0.00  0.00    +0.000 A 
ATOM      7  C3  UNL     1     148.953 163.891 168.496  0.00  0.00    +0.000 A 
ATOM      8  C4  UNL     1     148.034 164.631 169.219  0.00  0.00    +0.000 A 
ATOM      9  C5  UNL     1     148.429 165.314 170.349  0.00  0.00    +0.000 A 
ATOM     10  C6  UNL     1     149.728 165.299 170.811  0.00  0.00    +0.000 A 
ATOM     11  C7  UNL     1     150.642 164.564 170.093  0.00  0.00    +0.000 A 
ATOM     12  C8  UNL     1     146.726 164.508 168.543  0.00  0.00    +0.000 C 
ATOM     13  C11 UNL     1     146.845 163.126 167.899  0.00  0.00    +0.000 C 
ATOM     14  C12 UNL     1     148.268 163.251 167.331  0.00  0.00    +0.000 C 
BRANCH  12  15
ATOM     15  N2  UNL     1     146.698 165.442 167.433  0.00  0.00    +0.000 NA
ATOM     16  H5  UNL     1     147.489 165.313 166.765  0.00  0.00    +0.000 HD
BRANCH  15  17
ATOM     17  C9  UNL     1     145.422 165.553 166.788  0.00  0.00    +0.000 C 
BRANCH  17  18
ATOM     18  C10 UNL     1     145.539 166.703 165.796  0.00  0.00    +0.000 C 
BRANCH  18  19
ATOM     19  O2  UNL     1     146.775 166.703 165.164  0.00  0.00    +0.000 OA
ATOM     20  H10 UNL     1     146.583 166.711 164.184  0.00  0.00    +0.000 HD
ENDBRANCH  18  19
ENDBRANCH  17  18
ENDBRANCH  15  17
ENDBRANCH  12  15
ENDBRANCH   3   6
BRANCH   5  21
ATOM     21  C14 UNL     1     153.400 160.329 167.323  0.00  0.00    +0.000 A 
ATOM     22  C15 UNL     1     153.939 159.670 168.399  0.00  0.00    +0.000 A 
ATOM     23  C16 UNL     1     154.685 158.534 168.266  0.00  0.00    +0.000 A 
ATOM     24  C17 UNL     1     154.937 157.985 167.035  0.00  0.00    +0.000 A 
ATOM     25  C21 UNL     1     154.375 158.676 165.935  0.00  0.00    +0.000 A 
ATOM     26  C22 UNL     1     153.633 159.806 166.070  0.00  0.00    +0.000 A 
BRANCH  23  27
ATOM     27  C23 UNL     1     155.178 157.969 169.503  0.00  0.00    +0.000 C 
ATOM     28  N4  UNL     1     155.588 157.524 170.478  0.00  0.00    +0.000 NA
ENDBRANCH  23  27
BRANCH  24  29
ATOM     29  O3  UNL     1     155.654 156.883 166.847  0.00  0.00    +0.000 OA
BRANCH  29  30
ATOM     30  C18 UNL     1     156.870 156.420 166.571  0.00  0.00    +0.000 C 
ATOM     31  C19 UNL     1     157.015 156.116 165.072  0.00  0.00    +0.000 C 
ATOM     32  C20 UNL     1     157.969 157.492 166.827  0.00  0.00    +0.000 C 
ENDBRANCH  29  30
ENDBRANCH  24  29
ENDBRANCH   5  21
TORSDOF 9
ENDMDL
MODEL 5
REMARK VINA RESULT:      -6.0      2.109     10.284
REMARK  Name = ./3D_structures\o23_MMV1580492_3D.pdb
REMARK  11 active torsions:
REMARK  status: ('A' for Active; 'I' for Inactive)
REMARK    1  A    between atoms: C1_3  and  C2_4
REMARK    2  A    between atoms: C8_10  and  N2_11
REMARK    3  A    between atoms: N2_11  and  C9_12
REMARK    4  A    between atoms: C9_12  and  C10_13
REMARK    5  A    between atoms: C10_13  and  O2_14
REMARK    6  A    between atoms: C13_18  and  C14_19
REMARK    7  A    between atoms: C16_21  and  C23_29
REMARK    8  A    between atoms: C17_22  and  O3_23
REMARK    9  A    between atoms: O3_23  and  C18_24
REMARK   10  A    between atoms: C18_24  and  C19_25
REMARK   11  A    between atoms: C18_24  and  C20_26
REMARK                            x       y       z     vdW  Elec       q    Type
REMARK                         _______ _______ _______ _____ _____    ______ ____
ROOT
ATOM      1  O1  UNL     1     151.035 162.152 167.078  0.00  0.00    +0.000 OA
ATOM      2  N1  UNL     1     150.066 162.980 167.214  0.00  0.00    +0.000 NA
ATOM      3  C1  UNL     1     149.428 162.727 168.350  0.00  0.00    +0.000 A 
ATOM      4  N3  UNL     1     150.064 161.685 168.916  0.00  0.00    +0.000 NA
ATOM      5  C13 UNL     1     151.076 161.322 168.118  0.00  0.00    +0.000 A 
ENDROOT
BRANCH   3   6
ATOM      6  C2  UNL     1     148.271 163.464 168.854  0.00  0.00    +0.000 A 
ATOM      7  C3  UNL     1     147.009 163.129 168.413  0.00  0.00    +0.000 A 
ATOM      8  C4  UNL     1     145.935 163.850 168.905  0.00  0.00    +0.000 A 
ATOM      9  C5  UNL     1     146.140 164.869 169.810  0.00  0.00    +0.000 A 
ATOM     10  C6  UNL     1     147.394 165.220 170.263  0.00  0.00    +0.000 A 
ATOM     11  C7  UNL     1     148.462 164.503 169.774  0.00  0.00    +0.000 A 
ATOM     12  C8  UNL     1     144.708 163.311 168.283  0.00  0.00    +0.000 C 
ATOM     13  C11 UNL     1     145.106 161.855 168.038  0.00  0.00    +0.000 C 
ATOM     14  C12 UNL     1     146.513 162.087 167.462  0.00  0.00    +0.000 C 
BRANCH  12  15
ATOM     15  N2  UNL     1     144.574 163.895 166.962  0.00  0.00    +0.000 NA
ATOM     16  H5  UNL     1     145.233 163.488 166.262  0.00  0.00    +0.000 HD
BRANCH  15  17
ATOM     17  C9  UNL     1     143.223 163.979 166.488  0.00  0.00    +0.000 C 
BRANCH  17  18
ATOM     18  C10 UNL     1     143.248 164.895 165.272  0.00  0.00    +0.000 C 
BRANCH  18  19
ATOM     19  O2  UNL     1     142.735 166.149 165.572  0.00  0.00    +0.000 OA
ATOM     20  H10 UNL     1     143.510 166.695 165.888  0.00  0.00    +0.000 HD
ENDBRANCH  18  19
ENDBRANCH  17  18
ENDBRANCH  15  17
ENDBRANCH  12  15
ENDBRANCH   3   6
BRANCH   5  21
ATOM     21  C14 UNL     1     152.065 160.265 168.258  0.00  0.00    +0.000 A 
ATOM     22  C15 UNL     1     153.049 160.104 167.315  0.00  0.00    +0.000 A 
ATOM     23  C16 UNL     1     153.995 159.123 167.401  0.00  0.00    +0.000 A 
ATOM     24  C17 UNL     1     154.012 158.236 168.448  0.00  0.00    +0.000 A 
ATOM     25  C21 UNL     1     152.991 158.414 169.411  0.00  0.00    +0.000 A 
ATOM     26  C22 UNL     1     152.050 159.391 169.323  0.00  0.00    +0.000 A 
BRANCH  23  27
ATOM     27  C23 UNL     1     154.957 159.095 166.321  0.00  0.00    +0.000 C 
ATOM     28  N4  UNL     1     155.733 159.081 165.476  0.00  0.00    +0.000 NA
ENDBRANCH  23  27
BRANCH  24  29
ATOM     29  O3  UNL     1     154.907 157.265 168.582  0.00  0.00    +0.000 OA
BRANCH  29  30
ATOM     30  C18 UNL     1     156.020 156.902 169.215  0.00  0.00    +0.000 C 
ATOM     31  C19 UNL     1     157.257 157.529 168.553  0.00  0.00    +0.000 C 
ATOM     32  C20 UNL     1     156.068 157.461 170.667  0.00  0.00    +0.000 C 
ENDBRANCH  29  30
ENDBRANCH  24  29
ENDBRANCH   5  21
TORSDOF 9
ENDMDL
MODEL 6
REMARK VINA RESULT:      -6.0      2.087      9.809
REMARK  Name = ./3D_structures\o23_MMV1580492_3D.pdb
REMARK  11 active torsions:
REMARK  status: ('A' for Active; 'I' for Inactive)
REMARK    1  A    between atoms: C1_3  and  C2_4
REMARK    2  A    between atoms: C8_10  and  N2_11
REMARK    3  A    between atoms: N2_11  and  C9_12
REMARK    4  A    between atoms: C9_12  and  C10_13
REMARK    5  A    between atoms: C10_13  and  O2_14
REMARK    6  A    between atoms: C13_18  and  C14_19
REMARK    7  A    between atoms: C16_21  and  C23_29
REMARK    8  A    between atoms: C17_22  and  O3_23
REMARK    9  A    between atoms: O3_23  and  C18_24
REMARK   10  A    between atoms: C18_24  and  C19_25
REMARK   11  A    between atoms: C18_24  and  C20_26
REMARK                            x       y       z     vdW  Elec       q    Type
REMARK                         _______ _______ _______ _____ _____    ______ ____
ROOT
ATOM      1  O1  UNL     1     152.044 163.264 168.322  0.00  0.00    +0.000 OA
ATOM      2  N1  UNL     1     151.098 164.128 168.358  0.00  0.00    +0.000 NA
ATOM      3  C1  UNL     1     150.122 163.744 167.544  0.00  0.00    +0.000 A 
ATOM      4  N3  UNL     1     150.522 162.581 166.997  0.00  0.00    +0.000 NA
ATOM      5  C13 UNL     1     151.731 162.277 167.486  0.00  0.00    +0.000 A 
ENDROOT
BRANCH   3   6
ATOM      6  C2  UNL     1     148.873 164.467 167.319  0.00  0.00    +0.000 A 
ATOM      7  C3  UNL     1     147.778 164.195 168.111  0.00  0.00    +0.000 A 
ATOM      8  C4  UNL     1     146.608 164.894 167.867  0.00  0.00    +0.000 A 
ATOM      9  C5  UNL     1     146.558 165.832 166.859  0.00  0.00    +0.000 A 
ATOM     10  C6  UNL     1     147.642 166.118 166.055  0.00  0.00    +0.000 A 
ATOM     11  C7  UNL     1     148.805 165.424 166.297  0.00  0.00    +0.000 A 
ATOM     12  C8  UNL     1     145.594 164.423 168.831  0.00  0.00    +0.000 C 
ATOM     13  C11 UNL     1     146.468 164.014 170.017  0.00  0.00    +0.000 C 
ATOM     14  C12 UNL     1     147.565 163.254 169.252  0.00  0.00    +0.000 C 
BRANCH  12  15
ATOM     15  N2  UNL     1     145.030 163.184 168.330  0.00  0.00    +0.000 NA
ATOM     16  H5  UNL     1     144.889 162.465 169.074  0.00  0.00    +0.000 HD
BRANCH  15  17
ATOM     17  C9  UNL     1     143.887 163.356 167.482  0.00  0.00    +0.000 C 
BRANCH  17  18
ATOM     18  C10 UNL     1     144.209 162.644 166.174  0.00  0.00    +0.000 C 
BRANCH  18  19
ATOM     19  O2  UNL     1     145.476 162.079 166.204  0.00  0.00    +0.000 OA
ATOM     20  H10 UNL     1     145.432 161.339 166.875  0.00  0.00    +0.000 HD
ENDBRANCH  18  19
ENDBRANCH  17  18
ENDBRANCH  15  17
ENDBRANCH  12  15
ENDBRANCH   3   6
BRANCH   5  21
ATOM     21  C14 UNL     1     152.603 161.142 167.227  0.00  0.00    +0.000 A 
ATOM     22  C15 UNL     1     153.048 160.357 168.261  0.00  0.00    +0.000 A 
ATOM     23  C16 UNL     1     153.872 159.286 168.067  0.00  0.00    +0.000 A 
ATOM     24  C17 UNL     1     154.303 158.933 166.814  0.00  0.00    +0.000 A 
ATOM     25  C21 UNL     1     153.837 159.752 165.758  0.00  0.00    +0.000 A 
ATOM     26  C22 UNL     1     153.017 160.818 165.954  0.00  0.00    +0.000 A 
BRANCH  23  27
ATOM     27  C23 UNL     1     154.246 158.568 169.267  0.00  0.00    +0.000 C 
ATOM     28  N4  UNL     1     154.542 157.982 170.208  0.00  0.00    +0.000 NA
ENDBRANCH  23  27
BRANCH  24  29
ATOM     29  O3  UNL     1     155.103 157.902 166.567  0.00  0.00    +0.000 OA
BRANCH  29  30
ATOM     30  C18 UNL     1     156.369 157.537 166.380  0.00  0.00    +0.000 C 
ATOM     31  C19 UNL     1     156.954 156.912 167.655  0.00  0.00    +0.000 C 
ATOM     32  C20 UNL     1     156.493 156.395 165.331  0.00  0.00    +0.000 C 
ENDBRANCH  29  30
ENDBRANCH  24  29
ENDBRANCH   5  21
TORSDOF 9
ENDMDL
MODEL 7
REMARK VINA RESULT:      -5.9     20.769     24.664
REMARK  Name = ./3D_structures\o23_MMV1580492_3D.pdb
REMARK  11 active torsions:
REMARK  status: ('A' for Active; 'I' for Inactive)
REMARK    1  A    between atoms: C1_3  and  C2_4
REMARK    2  A    between atoms: C8_10  and  N2_11
REMARK    3  A    between atoms: N2_11  and  C9_12
REMARK    4  A    between atoms: C9_12  and  C10_13
REMARK    5  A    between atoms: C10_13  and  O2_14
REMARK    6  A    between atoms: C13_18  and  C14_19
REMARK    7  A    between atoms: C16_21  and  C23_29
REMARK    8  A    between atoms: C17_22  and  O3_23
REMARK    9  A    between atoms: O3_23  and  C18_24
REMARK   10  A    between atoms: C18_24  and  C19_25
REMARK   11  A    between atoms: C18_24  and  C20_26
REMARK                            x       y       z     vdW  Elec       q    Type
REMARK                         _______ _______ _______ _____ _____    ______ ____
ROOT
ATOM      1  O1  UNL     1     161.703 143.052 164.780  0.00  0.00    +0.000 OA
ATOM      2  N1  UNL     1     162.185 142.459 163.751  0.00  0.00    +0.000 NA
ATOM      3  C1  UNL     1     162.941 141.441 164.145  0.00  0.00    +0.000 A 
ATOM      4  N3  UNL     1     162.897 141.438 165.491  0.00  0.00    +0.000 NA
ATOM      5  C13 UNL     1     162.119 142.450 165.892  0.00  0.00    +0.000 A 
ENDROOT
BRANCH   3   6
ATOM      6  C2  UNL     1     163.657 140.526 163.260  0.00  0.00    +0.000 A 
ATOM      7  C3  UNL     1     165.028 140.615 163.156  0.00  0.00    +0.000 A 
ATOM      8  C4  UNL     1     165.675 139.737 162.304  0.00  0.00    +0.000 A 
ATOM      9  C5  UNL     1     164.953 138.806 161.590  0.00  0.00    +0.000 A 
ATOM     10  C6  UNL     1     163.581 138.700 161.679  0.00  0.00    +0.000 A 
ATOM     11  C7  UNL     1     162.937 139.572 162.526  0.00  0.00    +0.000 A 
ATOM     12  C8  UNL     1     167.120 140.035 162.363  0.00  0.00    +0.000 C 
ATOM     13  C11 UNL     1     167.261 140.578 163.786  0.00  0.00    +0.000 C 
ATOM     14  C12 UNL     1     166.036 141.507 163.807  0.00  0.00    +0.000 C 
BRANCH  12  15
ATOM     15  N2  UNL     1     167.387 141.168 161.497  0.00  0.00    +0.000 NA
ATOM     16  H5  UNL     1     167.104 142.082 161.914  0.00  0.00    +0.000 HD
BRANCH  15  17
ATOM     17  C9  UNL     1     168.706 141.185 160.935  0.00  0.00    +0.000 C 
BRANCH  17  18
ATOM     18  C10 UNL     1     168.933 139.808 160.325  0.00  0.00    +0.000 C 
BRANCH  18  19
ATOM     19  O2  UNL     1     170.157 139.279 160.709  0.00  0.00    +0.000 OA
ATOM     20  H10 UNL     1     170.716 139.250 159.881  0.00  0.00    +0.000 HD
ENDBRANCH  18  19
ENDBRANCH  17  18
ENDBRANCH  15  17
ENDBRANCH  12  15
ENDBRANCH   3   6
BRANCH   5  21
ATOM     21  C14 UNL     1     161.742 142.888 167.227  0.00  0.00    +0.000 A 
ATOM     22  C15 UNL     1     162.546 142.611 168.303  0.00  0.00    +0.000 A 
ATOM     23  C16 UNL     1     162.231 142.996 169.574  0.00  0.00    +0.000 A 
ATOM     24  C17 UNL     1     161.080 143.691 169.846  0.00  0.00    +0.000 A 
ATOM     25  C21 UNL     1     160.260 143.970 168.727  0.00  0.00    +0.000 A 
ATOM     26  C22 UNL     1     160.576 143.584 167.462  0.00  0.00    +0.000 A 
BRANCH  23  27
ATOM     27  C23 UNL     1     163.190 142.620 170.591  0.00  0.00    +0.000 C 
ATOM     28  N4  UNL     1     163.937 142.309 171.404  0.00  0.00    +0.000 NA
ENDBRANCH  23  27
BRANCH  24  29
ATOM     29  O3  UNL     1     160.725 144.091 171.061  0.00  0.00    +0.000 OA
BRANCH  29  30
ATOM     30  C18 UNL     1     160.757 145.112 171.915  0.00  0.00    +0.000 C 
ATOM     31  C19 UNL     1     161.410 144.697 173.242  0.00  0.00    +0.000 C 
ATOM     32  C20 UNL     1     161.675 146.261 171.407  0.00  0.00    +0.000 C 
ENDBRANCH  29  30
ENDBRANCH  24  29
ENDBRANCH   5  21
TORSDOF 9
ENDMDL
MODEL 8
REMARK VINA RESULT:      -5.9      7.887     12.410
REMARK  Name = ./3D_structures\o23_MMV1580492_3D.pdb
REMARK  11 active torsions:
REMARK  status: ('A' for Active; 'I' for Inactive)
REMARK    1  A    between atoms: C1_3  and  C2_4
REMARK    2  A    between atoms: C8_10  and  N2_11
REMARK    3  A    between atoms: N2_11  and  C9_12
REMARK    4  A    between atoms: C9_12  and  C10_13
REMARK    5  A    between atoms: C10_13  and  O2_14
REMARK    6  A    between atoms: C13_18  and  C14_19
REMARK    7  A    between atoms: C16_21  and  C23_29
REMARK    8  A    between atoms: C17_22  and  O3_23
REMARK    9  A    between atoms: O3_23  and  C18_24
REMARK   10  A    between atoms: C18_24  and  C19_25
REMARK   11  A    between atoms: C18_24  and  C20_26
REMARK                            x       y       z     vdW  Elec       q    Type
REMARK                         _______ _______ _______ _____ _____    ______ ____
ROOT
ATOM      1  O1  UNL     1     157.466 156.627 163.922  0.00  0.00    +0.000 OA
ATOM      2  N1  UNL     1     157.598 157.509 164.842  0.00  0.00    +0.000 NA
ATOM      3  C1  UNL     1     158.049 156.927 165.947  0.00  0.00    +0.000 A 
ATOM      4  N3  UNL     1     158.191 155.621 165.654  0.00  0.00    +0.000 NA
ATOM      5  C13 UNL     1     157.825 155.431 164.380  0.00  0.00    +0.000 A 
ENDROOT
BRANCH   3   6
ATOM      6  C2  UNL     1     158.330 157.607 167.209  0.00  0.00    +0.000 A 
ATOM      7  C3  UNL     1     157.372 157.622 168.200  0.00  0.00    +0.000 A 
ATOM      8  C4  UNL     1     157.667 158.280 169.381  0.00  0.00    +0.000 A 
ATOM      9  C5  UNL     1     158.889 158.897 169.544  0.00  0.00    +0.000 A 
ATOM     10  C6  UNL     1     159.860 158.894 168.566  0.00  0.00    +0.000 A 
ATOM     11  C7  UNL     1     159.567 158.240 167.391  0.00  0.00    +0.000 A 
ATOM     12  C8  UNL     1     156.492 158.160 170.268  0.00  0.00    +0.000 C 
ATOM     13  C11 UNL     1     155.896 156.830 169.806  0.00  0.00    +0.000 C 
ATOM     14  C12 UNL     1     155.997 157.041 168.286  0.00  0.00    +0.000 C 
BRANCH  12  15
ATOM     15  N2  UNL     1     155.523 159.166 169.878  0.00  0.00    +0.000 NA
ATOM     16  H5  UNL     1     154.980 158.907 169.025  0.00  0.00    +0.000 HD
BRANCH  15  17
ATOM     17  C9  UNL     1     154.700 159.642 170.953  0.00  0.00    +0.000 C 
BRANCH  17  18
ATOM     18  C10 UNL     1     155.602 159.741 172.175  0.00  0.00    +0.000 C 
BRANCH  18  19
ATOM     19  O2  UNL     1     154.863 159.916 173.337  0.00  0.00    +0.000 OA
ATOM     20  H10 UNL     1     154.355 159.066 173.471  0.00  0.00    +0.000 HD
ENDBRANCH  18  19
ENDBRANCH  17  18
ENDBRANCH  15  17
ENDBRANCH  12  15
ENDBRANCH   3   6
BRANCH   5  21
ATOM     21  C14 UNL     1     157.788 154.222 163.572  0.00  0.00    +0.000 A 
ATOM     22  C15 UNL     1     157.502 153.009 164.148  0.00  0.00    +0.000 A 
ATOM     23  C16 UNL     1     157.461 151.848 163.432  0.00  0.00    +0.000 A 
ATOM     24  C17 UNL     1     157.706 151.831 162.082  0.00  0.00    +0.000 A 
ATOM     25  C21 UNL     1     158.000 153.088 161.503  0.00  0.00    +0.000 A 
ATOM     26  C22 UNL     1     158.040 154.243 162.218  0.00  0.00    +0.000 A 
BRANCH  23  27
ATOM     27  C23 UNL     1     157.145 150.660 164.196  0.00  0.00    +0.000 C 
ATOM     28  N4  UNL     1     156.912 149.721 164.812  0.00  0.00    +0.000 NA
ENDBRANCH  23  27
BRANCH  24  29
ATOM     29  O3  UNL     1     157.679 150.732 161.337  0.00  0.00    +0.000 OA
BRANCH  29  30
ATOM     30  C18 UNL     1     156.904 149.960 160.579  0.00  0.00    +0.000 C 
ATOM     31  C19 UNL     1     156.792 148.547 161.172  0.00  0.00    +0.000 C 
ATOM     32  C20 UNL     1     155.430 150.459 160.562  0.00  0.00    +0.000 C 
ENDBRANCH  29  30
ENDBRANCH  24  29
ENDBRANCH   5  21
TORSDOF 9
ENDMDL
MODEL 9
REMARK VINA RESULT:      -5.8      2.796      4.435
REMARK  Name = ./3D_structures\o23_MMV1580492_3D.pdb
REMARK  11 active torsions:
REMARK  status: ('A' for Active; 'I' for Inactive)
REMARK    1  A    between atoms: C1_3  and  C2_4
REMARK    2  A    between atoms: C8_10  and  N2_11
REMARK    3  A    between atoms: N2_11  and  C9_12
REMARK    4  A    between atoms: C9_12  and  C10_13
REMARK    5  A    between atoms: C10_13  and  O2_14
REMARK    6  A    between atoms: C13_18  and  C14_19
REMARK    7  A    between atoms: C16_21  and  C23_29
REMARK    8  A    between atoms: C17_22  and  O3_23
REMARK    9  A    between atoms: O3_23  and  C18_24
REMARK   10  A    between atoms: C18_24  and  C19_25
REMARK   11  A    between atoms: C18_24  and  C20_26
REMARK                            x       y       z     vdW  Elec       q    Type
REMARK                         _______ _______ _______ _____ _____    ______ ____
ROOT
ATOM      1  O1  UNL     1     151.406 159.255 169.195  0.00  0.00    +0.000 OA
ATOM      2  N1  UNL     1     152.476 158.583 169.409  0.00  0.00    +0.000 NA
ATOM      3  C1  UNL     1     153.511 159.412 169.464  0.00  0.00    +0.000 A 
ATOM      4  N3  UNL     1     153.015 160.648 169.271  0.00  0.00    +0.000 NA
ATOM      5  C13 UNL     1     151.691 160.551 169.102  0.00  0.00    +0.000 A 
ENDROOT
BRANCH   3   6
ATOM      6  C2  UNL     1     154.899 159.019 169.696  0.00  0.00    +0.000 A 
ATOM      7  C3  UNL     1     155.725 158.774 168.620  0.00  0.00    +0.000 A 
ATOM      8  C4  UNL     1     157.032 158.398 168.875  0.00  0.00    +0.000 A 
ATOM      9  C5  UNL     1     157.479 158.279 170.174  0.00  0.00    +0.000 A 
ATOM     10  C6  UNL     1     156.669 158.519 171.264  0.00  0.00    +0.000 A 
ATOM     11  C7  UNL     1     155.369 158.893 171.011  0.00  0.00    +0.000 A 
ATOM     12  C8  UNL     1     157.702 158.189 167.575  0.00  0.00    +0.000 C 
ATOM     13  C11 UNL     1     156.934 159.160 166.678  0.00  0.00    +0.000 C 
ATOM     14  C12 UNL     1     155.505 158.833 167.143  0.00  0.00    +0.000 C 
BRANCH  12  15
ATOM     15  N2  UNL     1     157.352 156.867 167.091  0.00  0.00    +0.000 NA
ATOM     16  H5  UNL     1     156.331 156.755 166.900  0.00  0.00    +0.000 HD
BRANCH  15  17
ATOM     17  C9  UNL     1     158.185 156.389 166.026  0.00  0.00    +0.000 C 
BRANCH  17  18
ATOM     18  C10 UNL     1     157.259 155.711 165.025  0.00  0.00    +0.000 C 
BRANCH  18  19
ATOM     19  O2  UNL     1     155.926 155.970 165.312  0.00  0.00    +0.000 OA
ATOM     20  H10 UNL     1     155.711 155.436 166.128  0.00  0.00    +0.000 HD
ENDBRANCH  18  19
ENDBRANCH  17  18
ENDBRANCH  15  17
ENDBRANCH  12  15
ENDBRANCH   3   6
BRANCH   5  21
ATOM     21  C14 UNL     1     150.686 161.575 168.862  0.00  0.00    +0.000 A 
ATOM     22  C15 UNL     1     150.557 162.639 169.719  0.00  0.00    +0.000 A 
ATOM     23  C16 UNL     1     149.626 163.620 169.538  0.00  0.00    +0.000 A 
ATOM     24  C17 UNL     1     148.759 163.595 168.475  0.00  0.00    +0.000 A 
ATOM     25  C21 UNL     1     148.902 162.492 167.600  0.00  0.00    +0.000 A 
ATOM     26  C22 UNL     1     149.830 161.516 167.783  0.00  0.00    +0.000 A 
BRANCH  23  27
ATOM     27  C23 UNL     1     149.627 164.667 170.537  0.00  0.00    +0.000 C 
ATOM     28  N4  UNL     1     149.625 165.484 171.342  0.00  0.00    +0.000 NA
ENDBRANCH  23  27
BRANCH  24  29
ATOM     29  O3  UNL     1     147.835 164.522 168.250  0.00  0.00    +0.000 OA
BRANCH  29  30
ATOM     30  C18 UNL     1     146.568 164.861 168.474  0.00  0.00    +0.000 C 
ATOM     31  C19 UNL     1     145.810 165.058 167.153  0.00  0.00    +0.000 C 
ATOM     32  C20 UNL     1     145.778 163.717 169.173  0.00  0.00    +0.000 C 
ENDBRANCH  29  30
ENDBRANCH  24  29
ENDBRANCH   5  21
TORSDOF 9
ENDMDL
