MODEL 1
REMARK VINA RESULT:      -6.4      0.000      0.000
REMARK  Name = ./3D_structures\o24_MMV690621_3D.pdb
REMARK  2 active torsions:
REMARK  status: ('A' for Active; 'I' for Inactive)
REMARK    1  A    between atoms: C10_12  and  N2_13
REMARK    2  A    between atoms: C11_14  and  C12_16
REMARK                            x       y       z     vdW  Elec       q    Type
REMARK                         _______ _______ _______ _____ _____    ______ ____
ROOT
ATOM      1 CL1  UNL     1     160.645 156.544 164.431  0.00  0.00    +0.000 Cl
ATOM      2  C1  UNL     1     159.121 156.693 165.282  0.00  0.00    +0.000 A 
ATOM      3  C2  UNL     1     159.004 157.235 166.534  0.00  0.00    +0.000 A 
ATOM      4  C3  UNL     1     157.782 157.344 167.194  0.00  0.00    +0.000 A 
ATOM      5  C4  UNL     1     156.652 156.884 166.553  0.00  0.00    +0.000 A 
ATOM      6  N1  UNL     1     155.591 157.079 167.353  0.00  0.00    +0.000 N 
ATOM      7  C5  UNL     1     155.988 157.645 168.481  0.00  0.00    +0.000 A 
ATOM      8  C6  UNL     1     157.350 157.818 168.400  0.00  0.00    +0.000 A 
ATOM      9  C7  UNL     1     158.155 158.428 169.488  0.00  0.00    +0.000 C 
ATOM     10  C8  UNL     1     157.499 158.421 170.817  0.00  0.00    +0.000 C 
ATOM     11  C9  UNL     1     156.212 157.641 170.879  0.00  0.00    +0.000 C 
ATOM     12  C10 UNL     1     155.340 158.111 169.744  0.00  0.00    +0.000 C 
ATOM     13  C17 UNL     1     156.756 156.329 165.281  0.00  0.00    +0.000 A 
ATOM     14  C18 UNL     1     157.992 156.233 164.641  0.00  0.00    +0.000 A 
ATOM     15  H2  UNL     1     154.598 156.831 167.140  0.00  0.00    +0.000 HD
ENDROOT
BRANCH  12  16
ATOM     16  N2  UNL     1     153.984 157.672 169.843  0.00  0.00    +0.000 N 
ATOM     17  C11 UNL     1     152.854 158.527 169.938  0.00  0.00    +0.000 C 
ATOM     18  O1  UNL     1     153.109 159.766 169.931  0.00  0.00    +0.000 OA
ATOM     19  H10 UNL     1     153.810 156.646 169.847  0.00  0.00    +0.000 HD
BRANCH  17  20
ATOM     20  C12 UNL     1     151.484 158.045 170.037  0.00  0.00    +0.000 A 
ATOM     21  N3  UNL     1     150.471 158.775 169.540  0.00  0.00    +0.000 NA
ATOM     22  C13 UNL     1     149.191 158.384 169.602  0.00  0.00    +0.000 A 
ATOM     23  C14 UNL     1     148.865 157.196 170.189  0.00  0.00    +0.000 A 
ATOM     24  C15 UNL     1     149.841 156.407 170.714  0.00  0.00    +0.000 A 
ATOM     25  C16 UNL     1     151.166 156.849 170.629  0.00  0.00    +0.000 A 
ENDBRANCH  17  20
ENDBRANCH  12  16
TORSDOF 2
ENDMDL
MODEL 2
REMARK VINA RESULT:      -6.1      4.324      8.531
REMARK  Name = ./3D_structures\o24_MMV690621_3D.pdb
REMARK  2 active torsions:
REMARK  status: ('A' for Active; 'I' for Inactive)
REMARK    1  A    between atoms: C10_12  and  N2_13
REMARK    2  A    between atoms: C11_14  and  C12_16
REMARK                            x       y       z     vdW  Elec       q    Type
REMARK                         _______ _______ _______ _____ _____    ______ ____
ROOT
ATOM      1 CL1  UNL     1     153.416 160.262 173.022  0.00  0.00    +0.000 Cl
ATOM      2  C1  UNL     1     154.703 159.733 171.956  0.00  0.00    +0.000 A 
ATOM      3  C2  UNL     1     154.523 159.481 170.622  0.00  0.00    +0.000 A 
ATOM      4  C3  UNL     1     155.560 159.062 169.792  0.00  0.00    +0.000 A 
ATOM      5  C4  UNL     1     156.812 158.896 170.345  0.00  0.00    +0.000 A 
ATOM      6  N1  UNL     1     157.660 158.491 169.385  0.00  0.00    +0.000 N 
ATOM      7  C5  UNL     1     157.008 158.388 168.237  0.00  0.00    +0.000 A 
ATOM      8  C6  UNL     1     155.699 158.739 168.472  0.00  0.00    +0.000 A 
ATOM      9  C7  UNL     1     154.660 158.745 167.411  0.00  0.00    +0.000 C 
ATOM     10  C8  UNL     1     154.993 157.930 166.219  0.00  0.00    +0.000 C 
ATOM     11  C9  UNL     1     156.240 157.096 166.356  0.00  0.00    +0.000 C 
ATOM     12  C10 UNL     1     157.344 158.002 166.833  0.00  0.00    +0.000 C 
ATOM     13  C17 UNL     1     157.008 159.148 171.699  0.00  0.00    +0.000 A 
ATOM     14  C18 UNL     1     155.953 159.568 172.509  0.00  0.00    +0.000 A 
ATOM     15  H2  UNL     1     158.676 158.283 169.500  0.00  0.00    +0.000 HD
ENDROOT
BRANCH  12  16
ATOM     16  N2  UNL     1     158.645 157.420 166.736  0.00  0.00    +0.000 N 
ATOM     17  C11 UNL     1     159.843 158.139 166.475  0.00  0.00    +0.000 C 
ATOM     18  O1  UNL     1     159.705 159.387 166.324  0.00  0.00    +0.000 OA
ATOM     19  H10 UNL     1     158.723 156.391 166.865  0.00  0.00    +0.000 HD
BRANCH  17  20
ATOM     20  C12 UNL     1     161.154 157.514 166.383  0.00  0.00    +0.000 A 
ATOM     21  N3  UNL     1     161.478 156.772 165.310  0.00  0.00    +0.000 NA
ATOM     22  C13 UNL     1     162.668 156.172 165.169  0.00  0.00    +0.000 A 
ATOM     23  C14 UNL     1     163.618 156.300 166.141  0.00  0.00    +0.000 A 
ATOM     24  C15 UNL     1     163.357 157.036 167.254  0.00  0.00    +0.000 A 
ATOM     25  C16 UNL     1     162.103 157.648 167.365  0.00  0.00    +0.000 A 
ENDBRANCH  17  20
ENDBRANCH  12  16
TORSDOF 2
ENDMDL
MODEL 3
REMARK VINA RESULT:      -6.1      6.971      9.951
REMARK  Name = ./3D_structures\o24_MMV690621_3D.pdb
REMARK  2 active torsions:
REMARK  status: ('A' for Active; 'I' for Inactive)
REMARK    1  A    between atoms: C10_12  and  N2_13
REMARK    2  A    between atoms: C11_14  and  C12_16
REMARK                            x       y       z     vdW  Elec       q    Type
REMARK                         _______ _______ _______ _____ _____    ______ ____
ROOT
ATOM      1 CL1  UNL     1     145.093 167.665 165.678  0.00  0.00    +0.000 Cl
ATOM      2  C1  UNL     1     146.114 166.354 166.235  0.00  0.00    +0.000 A 
ATOM      3  C2  UNL     1     147.460 166.288 165.989  0.00  0.00    +0.000 A 
ATOM      4  C3  UNL     1     148.254 165.237 166.441  0.00  0.00    +0.000 A 
ATOM      5  C4  UNL     1     147.652 164.229 167.163  0.00  0.00    +0.000 A 
ATOM      6  N1  UNL     1     148.584 163.322 167.501  0.00  0.00    +0.000 N 
ATOM      7  C5  UNL     1     149.760 163.702 167.027  0.00  0.00    +0.000 A 
ATOM      8  C6  UNL     1     149.573 164.892 166.364  0.00  0.00    +0.000 A 
ATOM      9  C7  UNL     1     150.676 165.628 165.696  0.00  0.00    +0.000 C 
ATOM     10  C8  UNL     1     151.871 164.805 165.392  0.00  0.00    +0.000 C 
ATOM     11  C9  UNL     1     151.699 163.330 165.649  0.00  0.00    +0.000 C 
ATOM     12  C10 UNL     1     151.156 163.170 167.045  0.00  0.00    +0.000 C 
ATOM     13  C17 UNL     1     146.286 164.283 167.421  0.00  0.00    +0.000 A 
ATOM     14  C18 UNL     1     145.512 165.348 166.957  0.00  0.00    +0.000 A 
ATOM     15  H2  UNL     1     148.430 162.447 168.050  0.00  0.00    +0.000 HD
ENDROOT
BRANCH  12  16
ATOM     16  N2  UNL     1     151.211 161.828 167.530  0.00  0.00    +0.000 N 
ATOM     17  C11 UNL     1     151.098 161.448 168.895  0.00  0.00    +0.000 C 
ATOM     18  O1  UNL     1     150.939 162.401 169.711  0.00  0.00    +0.000 OA
ATOM     19  H10 UNL     1     151.343 161.069 166.832  0.00  0.00    +0.000 HD
BRANCH  17  20
ATOM     20  C12 UNL     1     151.158 160.069 169.356  0.00  0.00    +0.000 A 
ATOM     21  N3  UNL     1     150.062 159.474 169.856  0.00  0.00    +0.000 NA
ATOM     22  C13 UNL     1     150.055 158.209 170.297  0.00  0.00    +0.000 A 
ATOM     23  C14 UNL     1     151.197 157.461 170.249  0.00  0.00    +0.000 A 
ATOM     24  C15 UNL     1     152.343 158.001 169.755  0.00  0.00    +0.000 A 
ATOM     25  C16 UNL     1     152.310 159.326 169.304  0.00  0.00    +0.000 A 
ENDBRANCH  17  20
ENDBRANCH  12  16
TORSDOF 2
ENDMDL
MODEL 4
REMARK VINA RESULT:      -6.1      4.259      6.080
REMARK  Name = ./3D_structures\o24_MMV690621_3D.pdb
REMARK  2 active torsions:
REMARK  status: ('A' for Active; 'I' for Inactive)
REMARK    1  A    between atoms: C10_12  and  N2_13
REMARK    2  A    between atoms: C11_14  and  C12_16
REMARK                            x       y       z     vdW  Elec       q    Type
REMARK                         _______ _______ _______ _____ _____    ______ ____
ROOT
ATOM      1 CL1  UNL     1     158.043 158.064 169.558  0.00  0.00    +0.000 Cl
ATOM      2  C1  UNL     1     156.470 158.839 169.561  0.00  0.00    +0.000 A 
ATOM      3  C2  UNL     1     155.741 159.072 168.425  0.00  0.00    +0.000 A 
ATOM      4  C3  UNL     1     154.493 159.689 168.449  0.00  0.00    +0.000 A 
ATOM      5  C4  UNL     1     153.980 160.078 169.669  0.00  0.00    +0.000 A 
ATOM      6  N1  UNL     1     152.780 160.647 169.474  0.00  0.00    +0.000 N 
ATOM      7  C5  UNL     1     152.496 160.643 168.181  0.00  0.00    +0.000 A 
ATOM      8  C6  UNL     1     153.552 160.051 167.528  0.00  0.00    +0.000 A 
ATOM      9  C7  UNL     1     153.593 159.868 166.055  0.00  0.00    +0.000 C 
ATOM     10  C8  UNL     1     152.670 160.747 165.299  0.00  0.00    +0.000 C 
ATOM     11  C9  UNL     1     151.980 161.797 166.131  0.00  0.00    +0.000 C 
ATOM     12  C10 UNL     1     151.366 161.105 167.320  0.00  0.00    +0.000 C 
ATOM     13  C17 UNL     1     154.711 159.847 170.831  0.00  0.00    +0.000 A 
ATOM     14  C18 UNL     1     155.959 159.226 170.780  0.00  0.00    +0.000 A 
ATOM     15  H2  UNL     1     152.151 161.039 170.209  0.00  0.00    +0.000 HD
ENDROOT
BRANCH  12  16
ATOM     16  N2  UNL     1     150.442 161.920 168.043  0.00  0.00    +0.000 N 
ATOM     17  C11 UNL     1     149.028 161.850 167.927  0.00  0.00    +0.000 C 
ATOM     18  O1  UNL     1     148.593 160.988 167.110  0.00  0.00    +0.000 OA
ATOM     19  H10 UNL     1     150.834 162.620 168.705  0.00  0.00    +0.000 HD
BRANCH  17  20
ATOM     20  C12 UNL     1     148.114 162.697 168.680  0.00  0.00    +0.000 A 
ATOM     21  N3  UNL     1     146.821 162.355 168.805  0.00  0.00    +0.000 NA
ATOM     22  C13 UNL     1     145.932 163.093 169.484  0.00  0.00    +0.000 A 
ATOM     23  C14 UNL     1     146.326 164.251 170.090  0.00  0.00    +0.000 A 
ATOM     24  C15 UNL     1     147.621 164.657 170.004  0.00  0.00    +0.000 A 
ATOM     25  C16 UNL     1     148.519 163.859 169.286  0.00  0.00    +0.000 A 
ENDBRANCH  17  20
ENDBRANCH  12  16
TORSDOF 2
ENDMDL
MODEL 5
REMARK VINA RESULT:      -5.9      4.311      6.787
REMARK  Name = ./3D_structures\o24_MMV690621_3D.pdb
REMARK  2 active torsions:
REMARK  status: ('A' for Active; 'I' for Inactive)
REMARK    1  A    between atoms: C10_12  and  N2_13
REMARK    2  A    between atoms: C11_14  and  C12_16
REMARK                            x       y       z     vdW  Elec       q    Type
REMARK                         _______ _______ _______ _____ _____    ______ ____
ROOT
ATOM      1 CL1  UNL     1     158.866 149.849 160.947  0.00  0.00    +0.000 Cl
ATOM      2  C1  UNL     1     158.676 151.127 162.131  0.00  0.00    +0.000 A 
ATOM      3  C2  UNL     1     158.426 152.432 161.801  0.00  0.00    +0.000 A 
ATOM      4  C3  UNL     1     158.277 153.433 162.759  0.00  0.00    +0.000 A 
ATOM      5  C4  UNL     1     158.389 153.085 164.088  0.00  0.00    +0.000 A 
ATOM      6  N1  UNL     1     158.216 154.184 164.840  0.00  0.00    +0.000 N 
ATOM      7  C5  UNL     1     157.997 155.226 164.053  0.00  0.00    +0.000 A 
ATOM      8  C6  UNL     1     158.033 154.776 162.753  0.00  0.00    +0.000 A 
ATOM      9  C7  UNL     1     157.828 155.667 161.583  0.00  0.00    +0.000 C 
ATOM     10  C8  UNL     1     158.037 157.107 161.861  0.00  0.00    +0.000 C 
ATOM     11  C9  UNL     1     158.592 157.409 163.229  0.00  0.00    +0.000 C 
ATOM     12  C10 UNL     1     157.738 156.685 164.237  0.00  0.00    +0.000 C 
ATOM     13  C17 UNL     1     158.644 151.762 164.438  0.00  0.00    +0.000 A 
ATOM     14  C18 UNL     1     158.787 150.778 163.459  0.00  0.00    +0.000 A 
ATOM     15  H2  UNL     1     158.245 154.236 165.883  0.00  0.00    +0.000 HD
ENDROOT
BRANCH  12  16
ATOM     16  N2  UNL     1     157.965 157.103 165.584  0.00  0.00    +0.000 N 
ATOM     17  C11 UNL     1     156.995 157.076 166.622  0.00  0.00    +0.000 C 
ATOM     18  O1  UNL     1     155.854 156.643 166.286  0.00  0.00    +0.000 OA
ATOM     19  H10 UNL     1     158.914 157.453 165.826  0.00  0.00    +0.000 HD
BRANCH  17  20
ATOM     20  C12 UNL     1     157.260 157.508 167.986  0.00  0.00    +0.000 A 
ATOM     21  N3  UNL     1     158.433 158.083 168.299  0.00  0.00    +0.000 NA
ATOM     22  C13 UNL     1     158.735 158.501 169.536  0.00  0.00    +0.000 A 
ATOM     23  C14 UNL     1     157.832 158.351 170.548  0.00  0.00    +0.000 A 
ATOM     24  C15 UNL     1     156.624 157.776 170.301  0.00  0.00    +0.000 A 
ATOM     25  C16 UNL     1     156.345 157.354 168.997  0.00  0.00    +0.000 A 
ENDBRANCH  17  20
ENDBRANCH  12  16
TORSDOF 2
ENDMDL
MODEL 6
REMARK VINA RESULT:      -5.9      9.404     10.813
REMARK  Name = ./3D_structures\o24_MMV690621_3D.pdb
REMARK  2 active torsions:
REMARK  status: ('A' for Active; 'I' for Inactive)
REMARK    1  A    between atoms: C10_12  and  N2_13
REMARK    2  A    between atoms: C11_14  and  C12_16
REMARK                            x       y       z     vdW  Elec       q    Type
REMARK                         _______ _______ _______ _____ _____    ______ ____
ROOT
ATOM      1 CL1  UNL     1     155.053 166.149 165.853  0.00  0.00    +0.000 Cl
ATOM      2  C1  UNL     1     153.316 165.917 165.850  0.00  0.00    +0.000 A 
ATOM      3  C2  UNL     1     152.546 165.962 166.982  0.00  0.00    +0.000 A 
ATOM      4  C3  UNL     1     151.166 165.775 166.959  0.00  0.00    +0.000 A 
ATOM      5  C4  UNL     1     150.561 165.534 165.743  0.00  0.00    +0.000 A 
ATOM      6  N1  UNL     1     149.241 165.383 165.939  0.00  0.00    +0.000 N 
ATOM      7  C5  UNL     1     148.969 165.516 167.227  0.00  0.00    +0.000 A 
ATOM      8  C6  UNL     1     150.156 165.761 167.877  0.00  0.00    +0.000 A 
ATOM      9  C7  UNL     1     150.247 165.966 169.345  0.00  0.00    +0.000 C 
ATOM     10  C8  UNL     1     149.089 165.450 170.112  0.00  0.00    +0.000 C 
ATOM     11  C9  UNL     1     148.103 164.650 169.300  0.00  0.00    +0.000 C 
ATOM     12  C10 UNL     1     147.747 165.466 168.085  0.00  0.00    +0.000 C 
ATOM     13  C17 UNL     1     151.332 165.484 164.586  0.00  0.00    +0.000 A 
ATOM     14  C18 UNL     1     152.713 165.676 164.636  0.00  0.00    +0.000 A 
ATOM     15  H2  UNL     1     148.522 165.190 165.206  0.00  0.00    +0.000 HD
ENDROOT
BRANCH  12  16
ATOM     16  N2  UNL     1     146.614 164.966 167.373  0.00  0.00    +0.000 N 
ATOM     17  C11 UNL     1     145.836 165.714 166.448  0.00  0.00    +0.000 C 
ATOM     18  O1  UNL     1     146.207 166.910 166.271  0.00  0.00    +0.000 OA
ATOM     19  H10 UNL     1     146.336 163.979 167.543  0.00  0.00    +0.000 HD
BRANCH  17  20
ATOM     20  C12 UNL     1     144.686 165.173 165.738  0.00  0.00    +0.000 A 
ATOM     21  N3  UNL     1     143.555 165.890 165.635  0.00  0.00    +0.000 NA
ATOM     22  C13 UNL     1     142.465 165.446 164.995  0.00  0.00    +0.000 A 
ATOM     23  C14 UNL     1     142.470 164.213 164.409  0.00  0.00    +0.000 A 
ATOM     24  C15 UNL     1     143.582 163.433 164.477  0.00  0.00    +0.000 A 
ATOM     25  C16 UNL     1     144.701 163.932 165.153  0.00  0.00    +0.000 A 
ENDBRANCH  17  20
ENDBRANCH  12  16
TORSDOF 2
ENDMDL
MODEL 7
REMARK VINA RESULT:      -5.9      4.265      8.817
REMARK  Name = ./3D_structures\o24_MMV690621_3D.pdb
REMARK  2 active torsions:
REMARK  status: ('A' for Active; 'I' for Inactive)
REMARK    1  A    between atoms: C10_12  and  N2_13
REMARK    2  A    between atoms: C11_14  and  C12_16
REMARK                            x       y       z     vdW  Elec       q    Type
REMARK                         _______ _______ _______ _____ _____    ______ ____
ROOT
ATOM      1 CL1  UNL     1     152.550 157.689 169.822  0.00  0.00    +0.000 Cl
ATOM      2  C1  UNL     1     154.233 157.792 169.341  0.00  0.00    +0.000 A 
ATOM      3  C2  UNL     1     154.699 157.369 168.125  0.00  0.00    +0.000 A 
ATOM      4  C3  UNL     1     156.040 157.460 167.763  0.00  0.00    +0.000 A 
ATOM      5  C4  UNL     1     156.926 157.999 168.671  0.00  0.00    +0.000 A 
ATOM      6  N1  UNL     1     158.156 157.996 168.132  0.00  0.00    +0.000 N 
ATOM      7  C5  UNL     1     158.102 157.479 166.915  0.00  0.00    +0.000 A 
ATOM      8  C6  UNL     1     156.792 157.139 166.669  0.00  0.00    +0.000 A 
ATOM      9  C7  UNL     1     156.341 156.526 165.394  0.00  0.00    +0.000 C 
ATOM     10  C8  UNL     1     157.419 155.891 164.600  0.00  0.00    +0.000 C 
ATOM     11  C9  UNL     1     158.753 155.817 165.298  0.00  0.00    +0.000 C 
ATOM     12  C10 UNL     1     159.073 157.195 165.816  0.00  0.00    +0.000 C 
ATOM     13  C17 UNL     1     156.467 158.433 169.911  0.00  0.00    +0.000 A 
ATOM     14  C18 UNL     1     155.117 158.331 170.250  0.00  0.00    +0.000 A 
ATOM     15  H2  UNL     1     159.033 158.341 168.581  0.00  0.00    +0.000 HD
ENDROOT
BRANCH  12  16
ATOM     16  N2  UNL     1     160.427 157.345 166.246  0.00  0.00    +0.000 N 
ATOM     17  C11 UNL     1     161.082 158.586 166.461  0.00  0.00    +0.000 C 
ATOM     18  O1  UNL     1     160.380 159.615 166.242  0.00  0.00    +0.000 OA
ATOM     19  H10 UNL     1     160.976 156.478 166.417  0.00  0.00    +0.000 HD
BRANCH  17  20
ATOM     20  C12 UNL     1     162.465 158.703 166.902  0.00  0.00    +0.000 A 
ATOM     21  N3  UNL     1     163.175 159.808 166.619  0.00  0.00    +0.000 NA
ATOM     22  C13 UNL     1     164.450 159.973 166.997  0.00  0.00    +0.000 A 
ATOM     23  C14 UNL     1     165.087 158.993 167.703  0.00  0.00    +0.000 A 
ATOM     24  C15 UNL     1     164.427 157.848 168.022  0.00  0.00    +0.000 A 
ATOM     25  C16 UNL     1     163.097 157.713 167.611  0.00  0.00    +0.000 A 
ENDBRANCH  17  20
ENDBRANCH  12  16
TORSDOF 2
ENDMDL
MODEL 8
REMARK VINA RESULT:      -5.8      4.322      7.895
REMARK  Name = ./3D_structures\o24_MMV690621_3D.pdb
REMARK  2 active torsions:
REMARK  status: ('A' for Active; 'I' for Inactive)
REMARK    1  A    between atoms: C10_12  and  N2_13
REMARK    2  A    between atoms: C11_14  and  C12_16
REMARK                            x       y       z     vdW  Elec       q    Type
REMARK                         _______ _______ _______ _____ _____    ______ ____
ROOT
ATOM      1 CL1  UNL     1     154.331 160.808 173.535  0.00  0.00    +0.000 Cl
ATOM      2  C1  UNL     1     155.110 159.944 172.224  0.00  0.00    +0.000 A 
ATOM      3  C2  UNL     1     154.720 160.045 170.916  0.00  0.00    +0.000 A 
ATOM      4  C3  UNL     1     155.353 159.349 169.888  0.00  0.00    +0.000 A 
ATOM      5  C4  UNL     1     156.412 158.529 170.212  0.00  0.00    +0.000 A 
ATOM      6  N1  UNL     1     156.876 157.956 169.089  0.00  0.00    +0.000 N 
ATOM      7  C5  UNL     1     156.161 158.372 168.056  0.00  0.00    +0.000 A 
ATOM      8  C6  UNL     1     155.208 159.239 168.535  0.00  0.00    +0.000 A 
ATOM      9  C7  UNL     1     154.214 159.912 167.660  0.00  0.00    +0.000 C 
ATOM     10  C8  UNL     1     154.012 159.263 166.344  0.00  0.00    +0.000 C 
ATOM     11  C9  UNL     1     154.711 157.937 166.183  0.00  0.00    +0.000 C 
ATOM     12  C10 UNL     1     156.151 158.131 166.581  0.00  0.00    +0.000 C 
ATOM     13  C17 UNL     1     156.819 158.416 171.538  0.00  0.00    +0.000 A 
ATOM     14  C18 UNL     1     156.169 159.125 172.549  0.00  0.00    +0.000 A 
ATOM     15  H2  UNL     1     157.673 157.285 169.017  0.00  0.00    +0.000 HD
ENDROOT
BRANCH  12  16
ATOM     16  N2  UNL     1     156.998 157.042 166.211  0.00  0.00    +0.000 N 
ATOM     17  C11 UNL     1     157.798 156.992 165.038  0.00  0.00    +0.000 C 
ATOM     18  O1  UNL     1     157.725 158.009 164.289  0.00  0.00    +0.000 OA
ATOM     19  H10 UNL     1     157.034 156.222 166.850  0.00  0.00    +0.000 HD
BRANCH  17  20
ATOM     20  C12 UNL     1     158.652 155.865 164.691  0.00  0.00    +0.000 A 
ATOM     21  N3  UNL     1     159.965 156.052 164.474  0.00  0.00    +0.000 NA
ATOM     22  C13 UNL     1     160.800 155.056 164.152  0.00  0.00    +0.000 A 
ATOM     23  C14 UNL     1     160.329 153.780 164.030  0.00  0.00    +0.000 A 
ATOM     24  C15 UNL     1     159.010 153.520 164.235  0.00  0.00    +0.000 A 
ATOM     25  C16 UNL     1     158.170 154.587 164.571  0.00  0.00    +0.000 A 
ENDBRANCH  17  20
ENDBRANCH  12  16
TORSDOF 2
ENDMDL
MODEL 9
REMARK VINA RESULT:      -5.8     16.308     18.353
REMARK  Name = ./3D_structures\o24_MMV690621_3D.pdb
REMARK  2 active torsions:
REMARK  status: ('A' for Active; 'I' for Inactive)
REMARK    1  A    between atoms: C10_12  and  N2_13
REMARK    2  A    between atoms: C11_14  and  C12_16
REMARK                            x       y       z     vdW  Elec       q    Type
REMARK                         _______ _______ _______ _____ _____    ______ ____
ROOT
ATOM      1 CL1  UNL     1     167.805 139.966 161.236  0.00  0.00    +0.000 Cl
ATOM      2  C1  UNL     1     166.735 140.529 162.504  0.00  0.00    +0.000 A 
ATOM      3  C2  UNL     1     165.420 140.159 162.603  0.00  0.00    +0.000 A 
ATOM      4  C3  UNL     1     164.586 140.617 163.620  0.00  0.00    +0.000 A 
ATOM      5  C4  UNL     1     165.114 141.479 164.558  0.00  0.00    +0.000 A 
ATOM      6  N1  UNL     1     164.154 141.799 165.441  0.00  0.00    +0.000 N 
ATOM      7  C5  UNL     1     163.030 141.182 165.113  0.00  0.00    +0.000 A 
ATOM      8  C6  UNL     1     163.281 140.441 163.981  0.00  0.00    +0.000 A 
ATOM      9  C7  UNL     1     162.248 139.608 163.314  0.00  0.00    +0.000 C 
ATOM     10  C8  UNL     1     160.852 139.968 163.655  0.00  0.00    +0.000 C 
ATOM     11  C9  UNL     1     160.709 141.224 164.475  0.00  0.00    +0.000 C 
ATOM     12  C10 UNL     1     161.639 141.107 165.653  0.00  0.00    +0.000 C 
ATOM     13  C17 UNL     1     166.448 141.865 164.469  0.00  0.00    +0.000 A 
ATOM     14  C18 UNL     1     167.263 141.390 163.441  0.00  0.00    +0.000 A 
ATOM     15  H2  UNL     1     164.253 142.434 166.265  0.00  0.00    +0.000 HD
ENDROOT
BRANCH  12  16
ATOM     16  N2  UNL     1     161.406 142.087 166.666  0.00  0.00    +0.000 N 
ATOM     17  C11 UNL     1     161.490 141.852 168.065  0.00  0.00    +0.000 C 
ATOM     18  O1  UNL     1     161.797 140.670 168.398  0.00  0.00    +0.000 OA
ATOM     19  H10 UNL     1     161.156 143.048 166.357  0.00  0.00    +0.000 HD
BRANCH  17  20
ATOM     20  C12 UNL     1     161.247 142.874 169.071  0.00  0.00    +0.000 A 
ATOM     21  N3  UNL     1     161.964 142.891 170.208  0.00  0.00    +0.000 NA
ATOM     22  C13 UNL     1     161.785 143.806 171.171  0.00  0.00    +0.000 A 
ATOM     23  C14 UNL     1     160.841 144.780 171.022  0.00  0.00    +0.000 A 
ATOM     24  C15 UNL     1     160.079 144.822 169.896  0.00  0.00    +0.000 A 
ATOM     25  C16 UNL     1     160.295 143.850 168.913  0.00  0.00    +0.000 A 
ENDBRANCH  17  20
ENDBRANCH  12  16
TORSDOF 2
ENDMDL
