MODEL 1
REMARK VINA RESULT:      -6.3      0.000      0.000
REMARK  Name = ./3D_structures\o27_MMV1782106_3D.pdb
REMARK  8 active torsions:
REMARK  status: ('A' for Active; 'I' for Inactive)
REMARK    1  A    between atoms: C2_4  and  C17_22
REMARK    2  A    between atoms: C3_5  and  C4_6
REMARK    3  A    between atoms: C4_6  and  C5_7
REMARK    4  A    between atoms: C7_9  and  C8_10
REMARK    5  A    between atoms: C8_10  and  C9_11
REMARK    6  A    between atoms: C9_11  and  C10_12
REMARK    7  A    between atoms: N2_14  and  C11_15
REMARK    8  A    between atoms: C12_16  and  O3_17
REMARK                            x       y       z     vdW  Elec       q    Type
REMARK                         _______ _______ _______ _____ _____    ______ ____
ROOT
ATOM      1  C9  UNL     1     148.374 165.104 166.800  0.00  0.00    +0.000 C 
ENDROOT
BRANCH   1   2
ATOM      2  C10 UNL     1     149.756 164.747 166.505  0.00  0.00    +0.000 C 
ATOM      3  O2  UNL     1     150.477 164.024 167.212  0.00  0.00    +0.000 OA
ATOM      4  N2  UNL     1     150.309 165.294 165.286  0.00  0.00    +0.000 N 
ATOM      5  H12 UNL     1     149.614 165.903 164.744  0.00  0.00    +0.000 HD
BRANCH   4   6
ATOM      6  C11 UNL     1     151.605 165.088 164.803  0.00  0.00    +0.000 A 
ATOM      7  C12 UNL     1     152.555 166.099 165.029  0.00  0.00    +0.000 A 
ATOM      8  C13 UNL     1     153.837 165.945 164.571  0.00  0.00    +0.000 A 
ATOM      9  C14 UNL     1     154.238 164.821 163.885  0.00  0.00    +0.000 A 
ATOM     10  C15 UNL     1     153.329 163.818 163.650  0.00  0.00    +0.000 A 
ATOM     11  C16 UNL     1     152.033 163.995 164.125  0.00  0.00    +0.000 A 
BRANCH   7  12
ATOM     12  O3  UNL     1     152.185 167.256 165.723  0.00  0.00    +0.000 OA
ATOM     13  H13 UNL     1     152.883 167.710 166.272  0.00  0.00    +0.000 HD
ENDBRANCH   7  12
ENDBRANCH   4   6
ENDBRANCH   1   2
BRANCH   1  14
ATOM     14  C8  UNL     1     147.703 166.230 166.161  0.00  0.00    +0.000 C 
BRANCH  14  21
ATOM     15  O1  UNL     1     145.813 168.367 165.799  0.00  0.00    +0.000 OA
ATOM     16  C1  UNL     1     145.388 167.180 165.720  0.00  0.00    +0.000 A 
ATOM     17  N1  UNL     1     144.058 166.987 165.435  0.00  0.00    +0.000 N 
ATOM     18  C2  UNL     1     143.513 165.777 165.339  0.00  0.00    +0.000 A 
ATOM     19  C3  UNL     1     144.357 164.696 165.543  0.00  0.00    +0.000 A 
ATOM     20  C6  UNL     1     145.690 164.855 165.829  0.00  0.00    +0.000 A 
ATOM     21  C7  UNL     1     146.252 166.148 165.925  0.00  0.00    +0.000 A 
ATOM     22  C17 UNL     1     142.086 165.634 165.031  0.00  0.00    +0.000 C 
ATOM     23  H1  UNL     1     143.475 167.846 165.294  0.00  0.00    +0.000 HD
BRANCH  19  24
ATOM     24  C4  UNL     1     143.735 163.338 165.440  0.00  0.00    +0.000 C 
ATOM     25  C5  UNL     1     144.195 162.602 164.216  0.00  0.00    +0.000 C 
ENDBRANCH  19  24
ENDBRANCH  14  21
ENDBRANCH   1  14
TORSDOF 6
ENDMDL
MODEL 2
REMARK VINA RESULT:      -6.2     10.345     14.160
REMARK  Name = ./3D_structures\o27_MMV1782106_3D.pdb
REMARK  8 active torsions:
REMARK  status: ('A' for Active; 'I' for Inactive)
REMARK    1  A    between atoms: C2_4  and  C17_22
REMARK    2  A    between atoms: C3_5  and  C4_6
REMARK    3  A    between atoms: C4_6  and  C5_7
REMARK    4  A    between atoms: C7_9  and  C8_10
REMARK    5  A    between atoms: C8_10  and  C9_11
REMARK    6  A    between atoms: C9_11  and  C10_12
REMARK    7  A    between atoms: N2_14  and  C11_15
REMARK    8  A    between atoms: C12_16  and  O3_17
REMARK                            x       y       z     vdW  Elec       q    Type
REMARK                         _______ _______ _______ _____ _____    ______ ____
ROOT
ATOM      1  C9  UNL     1     158.337 158.449 170.439  0.00  0.00    +0.000 C 
ENDROOT
BRANCH   1   2
ATOM      2  C10 UNL     1     156.946 158.308 170.851  0.00  0.00    +0.000 C 
ATOM      3  O2  UNL     1     156.560 157.773 171.903  0.00  0.00    +0.000 OA
ATOM      4  N2  UNL     1     155.956 158.841 169.943  0.00  0.00    +0.000 N 
ATOM      5  H12 UNL     1     156.382 159.282 169.065  0.00  0.00    +0.000 HD
BRANCH   4   6
ATOM      6  C11 UNL     1     154.569 158.819 170.129  0.00  0.00    +0.000 A 
ATOM      7  C12 UNL     1     153.836 157.820 169.467  0.00  0.00    +0.000 A 
ATOM      8  C13 UNL     1     152.476 157.760 169.615  0.00  0.00    +0.000 A 
ATOM      9  C14 UNL     1     151.786 158.658 170.399  0.00  0.00    +0.000 A 
ATOM     10  C15 UNL     1     152.478 159.646 171.056  0.00  0.00    +0.000 A 
ATOM     11  C16 UNL     1     153.859 159.687 170.892  0.00  0.00    +0.000 A 
BRANCH   7  12
ATOM     12  O3  UNL     1     154.502 156.890 168.662  0.00  0.00    +0.000 OA
ATOM     13  H13 UNL     1     155.398 156.571 168.966  0.00  0.00    +0.000 HD
ENDBRANCH   7  12
ENDBRANCH   4   6
ENDBRANCH   1   2
BRANCH   1  14
ATOM     14  C8  UNL     1     158.729 159.202 169.253  0.00  0.00    +0.000 C 
BRANCH  14  21
ATOM     15  O1  UNL     1     157.012 158.084 167.235  0.00  0.00    +0.000 OA
ATOM     16  C1  UNL     1     158.260 157.976 167.078  0.00  0.00    +0.000 A 
ATOM     17  N1  UNL     1     158.717 157.361 165.936  0.00  0.00    +0.000 N 
ATOM     18  C2  UNL     1     160.012 157.191 165.682  0.00  0.00    +0.000 A 
ATOM     19  C3  UNL     1     160.901 157.669 166.633  0.00  0.00    +0.000 A 
ATOM     20  C6  UNL     1     160.477 158.289 167.781  0.00  0.00    +0.000 A 
ATOM     21  C7  UNL     1     159.098 158.462 168.034  0.00  0.00    +0.000 A 
ATOM     22  C17 UNL     1     160.438 156.526 164.446  0.00  0.00    +0.000 C 
ATOM     23  H1  UNL     1     157.992 157.021 165.261  0.00  0.00    +0.000 HD
BRANCH  19  24
ATOM     24  C4  UNL     1     162.356 157.468 166.342  0.00  0.00    +0.000 C 
ATOM     25  C5  UNL     1     163.161 157.300 167.598  0.00  0.00    +0.000 C 
ENDBRANCH  19  24
ENDBRANCH  14  21
ENDBRANCH   1  14
TORSDOF 6
ENDMDL
MODEL 3
REMARK VINA RESULT:      -6.1      2.599      3.361
REMARK  Name = ./3D_structures\o27_MMV1782106_3D.pdb
REMARK  8 active torsions:
REMARK  status: ('A' for Active; 'I' for Inactive)
REMARK    1  A    between atoms: C2_4  and  C17_22
REMARK    2  A    between atoms: C3_5  and  C4_6
REMARK    3  A    between atoms: C4_6  and  C5_7
REMARK    4  A    between atoms: C7_9  and  C8_10
REMARK    5  A    between atoms: C8_10  and  C9_11
REMARK    6  A    between atoms: C9_11  and  C10_12
REMARK    7  A    between atoms: N2_14  and  C11_15
REMARK    8  A    between atoms: C12_16  and  O3_17
REMARK                            x       y       z     vdW  Elec       q    Type
REMARK                         _______ _______ _______ _____ _____    ______ ____
ROOT
ATOM      1  C9  UNL     1     148.848 163.712 169.544  0.00  0.00    +0.000 C 
ENDROOT
BRANCH   1   2
ATOM      2  C10 UNL     1     149.928 164.237 168.718  0.00  0.00    +0.000 C 
ATOM      3  O2  UNL     1     150.860 164.951 169.124  0.00  0.00    +0.000 OA
ATOM      4  N2  UNL     1     149.888 163.886 167.317  0.00  0.00    +0.000 N 
ATOM      5  H12 UNL     1     149.051 163.269 167.061  0.00  0.00    +0.000 HD
BRANCH   4   6
ATOM      6  C11 UNL     1     150.812 164.275 166.342  0.00  0.00    +0.000 A 
ATOM      7  C12 UNL     1     150.513 165.412 165.573  0.00  0.00    +0.000 A 
ATOM      8  C13 UNL     1     151.386 165.829 164.603  0.00  0.00    +0.000 A 
ATOM      9  C14 UNL     1     152.564 165.165 164.346  0.00  0.00    +0.000 A 
ATOM     10  C15 UNL     1     152.881 164.049 165.082  0.00  0.00    +0.000 A 
ATOM     11  C16 UNL     1     151.980 163.644 166.062  0.00  0.00    +0.000 A 
BRANCH   7  12
ATOM     12  O3  UNL     1     149.325 166.113 165.806  0.00  0.00    +0.000 OA
ATOM     13  H13 UNL     1     149.333 167.100 165.658  0.00  0.00    +0.000 HD
ENDBRANCH   7  12
ENDBRANCH   4   6
ENDBRANCH   1   2
BRANCH   1  14
ATOM     14  C8  UNL     1     147.607 164.443 169.767  0.00  0.00    +0.000 C 
BRANCH  14  21
ATOM     15  O1  UNL     1     145.758 162.254 170.016  0.00  0.00    +0.000 OA
ATOM     16  C1  UNL     1     145.558 163.099 169.098  0.00  0.00    +0.000 A 
ATOM     17  N1  UNL     1     144.452 162.934 168.299  0.00  0.00    +0.000 N 
ATOM     18  C2  UNL     1     144.158 163.764 167.301  0.00  0.00    +0.000 A 
ATOM     19  C3  UNL     1     145.030 164.822 167.094  0.00  0.00    +0.000 A 
ATOM     20  C6  UNL     1     146.142 165.015 167.875  0.00  0.00    +0.000 A 
ATOM     21  C7  UNL     1     146.437 164.124 168.931  0.00  0.00    +0.000 A 
ATOM     22  C17 UNL     1     142.963 163.536 166.482  0.00  0.00    +0.000 C 
ATOM     23  H1  UNL     1     143.837 162.113 168.507  0.00  0.00    +0.000 HD
BRANCH  19  24
ATOM     24  C4  UNL     1     144.695 165.747 165.965  0.00  0.00    +0.000 C 
ATOM     25  C5  UNL     1     145.790 166.744 165.714  0.00  0.00    +0.000 C 
ENDBRANCH  19  24
ENDBRANCH  14  21
ENDBRANCH   1  14
TORSDOF 6
ENDMDL
MODEL 4
REMARK VINA RESULT:      -5.8     10.366     13.679
REMARK  Name = ./3D_structures\o27_MMV1782106_3D.pdb
REMARK  8 active torsions:
REMARK  status: ('A' for Active; 'I' for Inactive)
REMARK    1  A    between atoms: C2_4  and  C17_22
REMARK    2  A    between atoms: C3_5  and  C4_6
REMARK    3  A    between atoms: C4_6  and  C5_7
REMARK    4  A    between atoms: C7_9  and  C8_10
REMARK    5  A    between atoms: C8_10  and  C9_11
REMARK    6  A    between atoms: C9_11  and  C10_12
REMARK    7  A    between atoms: N2_14  and  C11_15
REMARK    8  A    between atoms: C12_16  and  O3_17
REMARK                            x       y       z     vdW  Elec       q    Type
REMARK                         _______ _______ _______ _____ _____    ______ ____
ROOT
ATOM      1  C9  UNL     1     158.332 158.409 170.318  0.00  0.00    +0.000 C 
ENDROOT
BRANCH   1   2
ATOM      2  C10 UNL     1     156.953 158.291 170.776  0.00  0.00    +0.000 C 
ATOM      3  O2  UNL     1     156.594 157.763 171.841  0.00  0.00    +0.000 OA
ATOM      4  N2  UNL     1     155.942 158.838 169.901  0.00  0.00    +0.000 N 
ATOM      5  H12 UNL     1     156.346 159.271 169.008  0.00  0.00    +0.000 HD
BRANCH   4   6
ATOM      6  C11 UNL     1     154.562 158.837 170.132  0.00  0.00    +0.000 A 
ATOM      7  C12 UNL     1     153.795 157.840 169.508  0.00  0.00    +0.000 A 
ATOM      8  C13 UNL     1     152.439 157.801 169.701  0.00  0.00    +0.000 A 
ATOM      9  C14 UNL     1     151.787 158.718 170.495  0.00  0.00    +0.000 A 
ATOM     10  C15 UNL     1     152.514 159.705 171.117  0.00  0.00    +0.000 A 
ATOM     11  C16 UNL     1     153.889 159.724 170.907  0.00  0.00    +0.000 A 
BRANCH   7  12
ATOM     12  O3  UNL     1     154.421 156.890 168.694  0.00  0.00    +0.000 OA
ATOM     13  H13 UNL     1     154.215 156.908 167.718  0.00  0.00    +0.000 HD
ENDBRANCH   7  12
ENDBRANCH   4   6
ENDBRANCH   1   2
BRANCH   1  14
ATOM     14  C8  UNL     1     158.712 159.253 169.190  0.00  0.00    +0.000 C 
BRANCH  14  21
ATOM     15  O1  UNL     1     161.196 159.570 167.775  0.00  0.00    +0.000 OA
ATOM     16  C1  UNL     1     160.351 158.752 167.315  0.00  0.00    +0.000 A 
ATOM     17  N1  UNL     1     160.687 158.044 166.185  0.00  0.00    +0.000 N 
ATOM     18  C2  UNL     1     159.863 157.166 165.618  0.00  0.00    +0.000 A 
ATOM     19  C3  UNL     1     158.627 156.991 166.222  0.00  0.00    +0.000 A 
ATOM     20  C6  UNL     1     158.263 157.682 167.351  0.00  0.00    +0.000 A 
ATOM     21  C7  UNL     1     159.151 158.608 167.940  0.00  0.00    +0.000 A 
ATOM     22  C17 UNL     1     160.278 156.440 164.413  0.00  0.00    +0.000 C 
ATOM     23  H1  UNL     1     161.634 158.226 165.778  0.00  0.00    +0.000 HD
BRANCH  19  24
ATOM     24  C4  UNL     1     157.704 156.006 165.574  0.00  0.00    +0.000 C 
ATOM     25  C5  UNL     1     156.294 156.517 165.512  0.00  0.00    +0.000 C 
ENDBRANCH  19  24
ENDBRANCH  14  21
ENDBRANCH   1  14
TORSDOF 6
ENDMDL
MODEL 5
REMARK VINA RESULT:      -5.7      9.550     10.891
REMARK  Name = ./3D_structures\o27_MMV1782106_3D.pdb
REMARK  8 active torsions:
REMARK  status: ('A' for Active; 'I' for Inactive)
REMARK    1  A    between atoms: C2_4  and  C17_22
REMARK    2  A    between atoms: C3_5  and  C4_6
REMARK    3  A    between atoms: C4_6  and  C5_7
REMARK    4  A    between atoms: C7_9  and  C8_10
REMARK    5  A    between atoms: C8_10  and  C9_11
REMARK    6  A    between atoms: C9_11  and  C10_12
REMARK    7  A    between atoms: N2_14  and  C11_15
REMARK    8  A    between atoms: C12_16  and  O3_17
REMARK                            x       y       z     vdW  Elec       q    Type
REMARK                         _______ _______ _______ _____ _____    ______ ____
ROOT
ATOM      1  C9  UNL     1     152.729 157.306 169.671  0.00  0.00    +0.000 C 
ENDROOT
BRANCH   1   2
ATOM      2  C10 UNL     1     153.986 157.989 169.393  0.00  0.00    +0.000 C 
ATOM      3  O2  UNL     1     154.101 159.190 169.099  0.00  0.00    +0.000 OA
ATOM      4  N2  UNL     1     155.181 157.180 169.470  0.00  0.00    +0.000 N 
ATOM      5  H12 UNL     1     154.984 156.159 169.729  0.00  0.00    +0.000 HD
BRANCH   4   6
ATOM      6  C11 UNL     1     156.490 157.618 169.243  0.00  0.00    +0.000 A 
ATOM      7  C12 UNL     1     157.243 158.033 170.354  0.00  0.00    +0.000 A 
ATOM      8  C13 UNL     1     158.528 158.475 170.182  0.00  0.00    +0.000 A 
ATOM      9  C14 UNL     1     159.122 158.529 168.941  0.00  0.00    +0.000 A 
ATOM     10  C15 UNL     1     158.408 158.130 167.837  0.00  0.00    +0.000 A 
ATOM     11  C16 UNL     1     157.105 157.684 168.036  0.00  0.00    +0.000 A 
BRANCH   7  12
ATOM     12  O3  UNL     1     156.674 157.992 171.632  0.00  0.00    +0.000 OA
ATOM     13  H13 UNL     1     157.245 157.667 172.383  0.00  0.00    +0.000 HD
ENDBRANCH   7  12
ENDBRANCH   4   6
ENDBRANCH   1   2
BRANCH   1  14
ATOM     14  C8  UNL     1     151.535 158.015 170.117  0.00  0.00    +0.000 C 
BRANCH  14  21
ATOM     15  O1  UNL     1     148.776 158.657 169.622  0.00  0.00    +0.000 OA
ATOM     16  C1  UNL     1     149.038 157.549 170.170  0.00  0.00    +0.000 A 
ATOM     17  N1  UNL     1     147.990 156.710 170.464  0.00  0.00    +0.000 N 
ATOM     18  C2  UNL     1     148.161 155.527 171.048  0.00  0.00    +0.000 A 
ATOM     19  C3  UNL     1     149.465 155.167 171.355  0.00  0.00    +0.000 A 
ATOM     20  C6  UNL     1     150.532 155.982 171.073  0.00  0.00    +0.000 A 
ATOM     21  C7  UNL     1     150.332 157.234 170.451  0.00  0.00    +0.000 A 
ATOM     22  C17 UNL     1     147.003 154.674 171.337  0.00  0.00    +0.000 C 
ATOM     23  H1  UNL     1     147.031 157.044 170.208  0.00  0.00    +0.000 HD
BRANCH  19  24
ATOM     24  C4  UNL     1     149.648 153.837 172.018  0.00  0.00    +0.000 C 
ATOM     25  C5  UNL     1     150.281 153.968 173.372  0.00  0.00    +0.000 C 
ENDBRANCH  19  24
ENDBRANCH  14  21
ENDBRANCH   1  14
TORSDOF 6
ENDMDL
MODEL 6
REMARK VINA RESULT:      -5.6     11.679     15.098
REMARK  Name = ./3D_structures\o27_MMV1782106_3D.pdb
REMARK  8 active torsions:
REMARK  status: ('A' for Active; 'I' for Inactive)
REMARK    1  A    between atoms: C2_4  and  C17_22
REMARK    2  A    between atoms: C3_5  and  C4_6
REMARK    3  A    between atoms: C4_6  and  C5_7
REMARK    4  A    between atoms: C7_9  and  C8_10
REMARK    5  A    between atoms: C8_10  and  C9_11
REMARK    6  A    between atoms: C9_11  and  C10_12
REMARK    7  A    between atoms: N2_14  and  C11_15
REMARK    8  A    between atoms: C12_16  and  O3_17
REMARK                            x       y       z     vdW  Elec       q    Type
REMARK                         _______ _______ _______ _____ _____    ______ ____
ROOT
ATOM      1  C9  UNL     1     158.446 155.117 164.955  0.00  0.00    +0.000 C 
ENDROOT
BRANCH   1   2
ATOM      2  C10 UNL     1     158.478 153.716 164.554  0.00  0.00    +0.000 C 
ATOM      3  O2  UNL     1     159.503 153.025 164.440  0.00  0.00    +0.000 OA
ATOM      4  N2  UNL     1     157.198 153.106 164.271  0.00  0.00    +0.000 N 
ATOM      5  H12 UNL     1     156.373 153.777 164.396  0.00  0.00    +0.000 HD
BRANCH   4   6
ATOM      6  C11 UNL     1     156.986 151.782 163.870  0.00  0.00    +0.000 A 
ATOM      7  C12 UNL     1     156.327 151.566 162.649  0.00  0.00    +0.000 A 
ATOM      8  C13 UNL     1     156.092 150.287 162.217  0.00  0.00    +0.000 A 
ATOM      9  C14 UNL     1     156.482 149.186 162.945  0.00  0.00    +0.000 A 
ATOM     10  C15 UNL     1     157.128 149.369 164.144  0.00  0.00    +0.000 A 
ATOM     11  C16 UNL     1     157.357 150.677 164.563  0.00  0.00    +0.000 A 
BRANCH   7  12
ATOM     12  O3  UNL     1     155.915 152.660 161.880  0.00  0.00    +0.000 OA
ATOM     13  H13 UNL     1     155.346 152.477 161.081  0.00  0.00    +0.000 HD
ENDBRANCH   7  12
ENDBRANCH   4   6
ENDBRANCH   1   2
BRANCH   1  14
ATOM     14  C8  UNL     1     157.204 155.874 165.057  0.00  0.00    +0.000 C 
BRANCH  14  21
ATOM     15  O1  UNL     1     154.832 157.206 165.989  0.00  0.00    +0.000 OA
ATOM     16  C1  UNL     1     155.922 157.455 166.577  0.00  0.00    +0.000 A 
ATOM     17  N1  UNL     1     155.897 158.322 167.643  0.00  0.00    +0.000 N 
ATOM     18  C2  UNL     1     156.992 158.656 168.321  0.00  0.00    +0.000 A 
ATOM     19  C3  UNL     1     158.183 158.083 167.901  0.00  0.00    +0.000 A 
ATOM     20  C6  UNL     1     158.241 157.213 166.841  0.00  0.00    +0.000 A 
ATOM     21  C7  UNL     1     157.068 156.870 166.133  0.00  0.00    +0.000 A 
ATOM     22  C17 UNL     1     156.903 159.586 169.451  0.00  0.00    +0.000 C 
ATOM     23  H1  UNL     1     154.965 158.720 167.906  0.00  0.00    +0.000 HD
BRANCH  19  24
ATOM     24  C4  UNL     1     159.412 158.469 168.665  0.00  0.00    +0.000 C 
ATOM     25  C5  UNL     1     160.610 158.600 167.771  0.00  0.00    +0.000 C 
ENDBRANCH  19  24
ENDBRANCH  14  21
ENDBRANCH   1  14
TORSDOF 6
ENDMDL
MODEL 7
REMARK VINA RESULT:      -5.5      2.168      7.320
REMARK  Name = ./3D_structures\o27_MMV1782106_3D.pdb
REMARK  8 active torsions:
REMARK  status: ('A' for Active; 'I' for Inactive)
REMARK    1  A    between atoms: C2_4  and  C17_22
REMARK    2  A    between atoms: C3_5  and  C4_6
REMARK    3  A    between atoms: C4_6  and  C5_7
REMARK    4  A    between atoms: C7_9  and  C8_10
REMARK    5  A    between atoms: C8_10  and  C9_11
REMARK    6  A    between atoms: C9_11  and  C10_12
REMARK    7  A    between atoms: N2_14  and  C11_15
REMARK    8  A    between atoms: C12_16  and  O3_17
REMARK                            x       y       z     vdW  Elec       q    Type
REMARK                         _______ _______ _______ _____ _____    ______ ____
ROOT
ATOM      1  C9  UNL     1     147.708 164.296 169.077  0.00  0.00    +0.000 C 
ENDROOT
BRANCH   1   2
ATOM      2  C10 UNL     1     146.346 164.573 168.636  0.00  0.00    +0.000 C 
ATOM      3  O2  UNL     1     145.430 164.995 169.359  0.00  0.00    +0.000 OA
ATOM      4  N2  UNL     1     146.067 164.326 167.239  0.00  0.00    +0.000 N 
ATOM      5  H12 UNL     1     146.917 163.965 166.696  0.00  0.00    +0.000 HD
BRANCH   4   6
ATOM      6  C11 UNL     1     144.839 164.518 166.597  0.00  0.00    +0.000 A 
ATOM      7  C12 UNL     1     144.597 165.770 166.009  0.00  0.00    +0.000 A 
ATOM      8  C13 UNL     1     143.406 166.006 165.373  0.00  0.00    +0.000 A 
ATOM      9  C14 UNL     1     142.421 165.049 165.287  0.00  0.00    +0.000 A 
ATOM     10  C15 UNL     1     142.631 163.815 165.855  0.00  0.00    +0.000 A 
ATOM     11  C16 UNL     1     143.848 163.598 166.495  0.00  0.00    +0.000 A 
BRANCH   7  12
ATOM     12  O3  UNL     1     145.574 166.768 166.075  0.00  0.00    +0.000 OA
ATOM     13  H13 UNL     1     146.504 166.525 165.806  0.00  0.00    +0.000 HD
ENDBRANCH   7  12
ENDBRANCH   4   6
ENDBRANCH   1   2
BRANCH   1  14
ATOM     14  C8  UNL     1     148.793 165.257 168.915  0.00  0.00    +0.000 C 
BRANCH  14  21
ATOM     15  O1  UNL     1     148.267 166.565 166.408  0.00  0.00    +0.000 OA
ATOM     16  C1  UNL     1     149.329 165.889 166.514  0.00  0.00    +0.000 A 
ATOM     17  N1  UNL     1     150.178 165.849 165.434  0.00  0.00    +0.000 N 
ATOM     18  C2  UNL     1     151.316 165.159 165.442  0.00  0.00    +0.000 A 
ATOM     19  C3  UNL     1     151.616 164.467 166.605  0.00  0.00    +0.000 A 
ATOM     20  C6  UNL     1     150.789 164.488 167.701  0.00  0.00    +0.000 A 
ATOM     21  C7  UNL     1     149.587 165.227 167.675  0.00  0.00    +0.000 A 
ATOM     22  C17 UNL     1     152.183 165.155 164.259  0.00  0.00    +0.000 C 
ATOM     23  H1  UNL     1     149.891 166.391 164.586  0.00  0.00    +0.000 HD
BRANCH  19  24
ATOM     24  C4  UNL     1     152.895 163.688 166.604  0.00  0.00    +0.000 C 
ATOM     25  C5  UNL     1     152.650 162.208 166.661  0.00  0.00    +0.000 C 
ENDBRANCH  19  24
ENDBRANCH  14  21
ENDBRANCH   1  14
TORSDOF 6
ENDMDL
MODEL 8
REMARK VINA RESULT:      -5.5      9.498     12.088
REMARK  Name = ./3D_structures\o27_MMV1782106_3D.pdb
REMARK  8 active torsions:
REMARK  status: ('A' for Active; 'I' for Inactive)
REMARK    1  A    between atoms: C2_4  and  C17_22
REMARK    2  A    between atoms: C3_5  and  C4_6
REMARK    3  A    between atoms: C4_6  and  C5_7
REMARK    4  A    between atoms: C7_9  and  C8_10
REMARK    5  A    between atoms: C8_10  and  C9_11
REMARK    6  A    between atoms: C9_11  and  C10_12
REMARK    7  A    between atoms: N2_14  and  C11_15
REMARK    8  A    between atoms: C12_16  and  O3_17
REMARK                            x       y       z     vdW  Elec       q    Type
REMARK                         _______ _______ _______ _____ _____    ______ ____
ROOT
ATOM      1  C9  UNL     1     158.256 158.724 171.082  0.00  0.00    +0.000 C 
ENDROOT
BRANCH   1   2
ATOM      2  C10 UNL     1     156.893 158.613 171.588  0.00  0.00    +0.000 C 
ATOM      3  O2  UNL     1     156.326 157.552 171.896  0.00  0.00    +0.000 OA
ATOM      4  N2  UNL     1     156.165 159.853 171.733  0.00  0.00    +0.000 N 
ATOM      5  H12 UNL     1     156.735 160.713 171.445  0.00  0.00    +0.000 HD
BRANCH   4   6
ATOM      6  C11 UNL     1     154.852 159.990 172.197  0.00  0.00    +0.000 A 
ATOM      7  C12 UNL     1     153.816 159.947 171.249  0.00  0.00    +0.000 A 
ATOM      8  C13 UNL     1     152.514 160.080 171.655  0.00  0.00    +0.000 A 
ATOM      9  C14 UNL     1     152.176 160.260 172.977  0.00  0.00    +0.000 A 
ATOM     10  C15 UNL     1     153.170 160.307 173.925  0.00  0.00    +0.000 A 
ATOM     11  C16 UNL     1     154.484 160.168 173.490  0.00  0.00    +0.000 A 
BRANCH   7  12
ATOM     12  O3  UNL     1     154.121 159.766 169.896  0.00  0.00    +0.000 OA
ATOM     13  H13 UNL     1     154.022 160.552 169.289  0.00  0.00    +0.000 HD
ENDBRANCH   7  12
ENDBRANCH   4   6
ENDBRANCH   1   2
BRANCH   1  14
ATOM     14  C8  UNL     1     158.574 158.624 169.662  0.00  0.00    +0.000 C 
BRANCH  14  21
ATOM     15  O1  UNL     1     157.460 161.219 169.118  0.00  0.00    +0.000 OA
ATOM     16  C1  UNL     1     157.063 160.244 168.419  0.00  0.00    +0.000 A 
ATOM     17  N1  UNL     1     156.150 160.494 167.423  0.00  0.00    +0.000 N 
ATOM     18  C2  UNL     1     155.665 159.534 166.638  0.00  0.00    +0.000 A 
ATOM     19  C3  UNL     1     156.126 158.248 166.870  0.00  0.00    +0.000 A 
ATOM     20  C6  UNL     1     157.039 157.966 167.856  0.00  0.00    +0.000 A 
ATOM     21  C7  UNL     1     157.544 158.997 168.678  0.00  0.00    +0.000 A 
ATOM     22  C17 UNL     1     154.691 159.862 165.591  0.00  0.00    +0.000 C 
ATOM     23  H1  UNL     1     155.841 161.487 167.302  0.00  0.00    +0.000 HD
BRANCH  19  24
ATOM     24  C4  UNL     1     155.570 157.174 165.987  0.00  0.00    +0.000 C 
ATOM     25  C5  UNL     1     156.655 156.349 165.357  0.00  0.00    +0.000 C 
ENDBRANCH  19  24
ENDBRANCH  14  21
ENDBRANCH   1  14
TORSDOF 6
ENDMDL
MODEL 9
REMARK VINA RESULT:      -5.5      7.051     11.258
REMARK  Name = ./3D_structures\o27_MMV1782106_3D.pdb
REMARK  8 active torsions:
REMARK  status: ('A' for Active; 'I' for Inactive)
REMARK    1  A    between atoms: C2_4  and  C17_22
REMARK    2  A    between atoms: C3_5  and  C4_6
REMARK    3  A    between atoms: C4_6  and  C5_7
REMARK    4  A    between atoms: C7_9  and  C8_10
REMARK    5  A    between atoms: C8_10  and  C9_11
REMARK    6  A    between atoms: C9_11  and  C10_12
REMARK    7  A    between atoms: N2_14  and  C11_15
REMARK    8  A    between atoms: C12_16  and  O3_17
REMARK                            x       y       z     vdW  Elec       q    Type
REMARK                         _______ _______ _______ _____ _____    ______ ____
ROOT
ATOM      1  C9  UNL     1     152.148 159.784 168.765  0.00  0.00    +0.000 C 
ENDROOT
BRANCH   1   2
ATOM      2  C10 UNL     1     150.848 160.303 169.169  0.00  0.00    +0.000 C 
ATOM      3  O2  UNL     1     150.175 159.886 170.126  0.00  0.00    +0.000 OA
ATOM      4  N2  UNL     1     150.321 161.390 168.376  0.00  0.00    +0.000 N 
ATOM      5  H12 UNL     1     150.971 161.681 167.575  0.00  0.00    +0.000 HD
BRANCH   4   6
ATOM      6  C11 UNL     1     149.100 162.042 168.576  0.00  0.00    +0.000 A 
ATOM      7  C12 UNL     1     147.982 161.568 167.869  0.00  0.00    +0.000 A 
ATOM      8  C13 UNL     1     146.765 162.177 168.029  0.00  0.00    +0.000 A 
ATOM      9  C14 UNL     1     146.591 163.254 168.868  0.00  0.00    +0.000 A 
ATOM     10  C15 UNL     1     147.668 163.739 169.571  0.00  0.00    +0.000 A 
ATOM     11  C16 UNL     1     148.894 163.104 169.393  0.00  0.00    +0.000 A 
BRANCH   7  12
ATOM     12  O3  UNL     1     148.119 160.475 167.007  0.00  0.00    +0.000 OA
ATOM     13  H13 UNL     1     148.999 160.349 166.553  0.00  0.00    +0.000 HD
ENDBRANCH   7  12
ENDBRANCH   4   6
ENDBRANCH   1   2
BRANCH   1  14
ATOM     14  C8  UNL     1     152.671 158.514 169.256  0.00  0.00    +0.000 C 
BRANCH  14  21
ATOM     15  O1  UNL     1     154.586 157.120 167.624  0.00  0.00    +0.000 OA
ATOM     16  C1  UNL     1     155.011 157.739 168.641  0.00  0.00    +0.000 A 
ATOM     17  N1  UNL     1     156.364 157.732 168.882  0.00  0.00    +0.000 N 
ATOM     18  C2  UNL     1     156.908 158.345 169.930  0.00  0.00    +0.000 A 
ATOM     19  C3  UNL     1     156.040 159.004 170.786  0.00  0.00    +0.000 A 
ATOM     20  C6  UNL     1     154.684 159.031 170.572  0.00  0.00    +0.000 A 
ATOM     21  C7  UNL     1     154.124 158.375 169.453  0.00  0.00    +0.000 A 
ATOM     22  C17 UNL     1     158.360 158.303 170.134  0.00  0.00    +0.000 C 
ATOM     23  H1  UNL     1     156.963 157.213 168.198  0.00  0.00    +0.000 HD
BRANCH  19  24
ATOM     24  C4  UNL     1     156.660 159.687 171.966  0.00  0.00    +0.000 C 
ATOM     25  C5  UNL     1     155.728 159.731 173.142  0.00  0.00    +0.000 C 
ENDBRANCH  19  24
ENDBRANCH  14  21
ENDBRANCH   1  14
TORSDOF 6
ENDMDL
