MODEL 1
REMARK VINA RESULT:      -5.2      0.000      0.000
REMARK  Name = ./3D_structures\o29_MMV1782104_3D.pdb
REMARK  6 active torsions:
REMARK  status: ('A' for Active; 'I' for Inactive)
REMARK    1  A    between atoms: N1_3  and  C6_11
REMARK    2  A    between atoms: C4_7  and  C5_8
REMARK    3  A    between atoms: C7_13  and  C8_14
REMARK    4  A    between atoms: C8_14  and  O4_15
REMARK    5  A    between atoms: C9_16  and  O6_19
REMARK    6  A    between atoms: C10_17  and  O5_18
REMARK                            x       y       z     vdW  Elec       q    Type
REMARK                         _______ _______ _______ _____ _____    ______ ____
ROOT
ATOM      1  O1  UNL     1     148.111 163.721 167.039  0.00  0.00    +0.000 OA
ATOM      2  C1  UNL     1     147.378 164.665 166.586  0.00  0.00    +0.000 A 
ATOM      3  N1  UNL     1     146.087 164.474 166.297  0.00  0.00    +0.000 N 
ATOM      4  C2  UNL     1     145.288 165.460 165.815  0.00  0.00    +0.000 A 
ATOM      5  C3  UNL     1     145.839 166.702 165.620  0.00  0.00    +0.000 A 
ATOM      6  N2  UNL     1     147.147 166.906 165.911  0.00  0.00    +0.000 NA
ATOM      7  C4  UNL     1     147.923 165.917 166.387  0.00  0.00    +0.000 A 
ENDROOT
BRANCH   7   8
ATOM      8  C5  UNL     1     149.328 166.129 166.701  0.00  0.00    +0.000 C 
ATOM      9  O2  UNL     1     149.694 166.499 167.832  0.00  0.00    +0.000 OA
ATOM     10  N3  UNL     1     150.288 165.906 165.689  0.00  0.00    +0.000 N 
ATOM     11  H3  UNL     1     150.839 165.030 165.693  0.00  0.00    +0.000 HD
ATOM     12  H4  UNL     1     150.438 166.615 164.949  0.00  0.00    +0.000 HD
ENDBRANCH   7   8
BRANCH   3  13
ATOM     13  C6  UNL     1     145.535 163.156 166.512  0.00  0.00    +0.000 C 
ATOM     14  O3  UNL     1     145.347 162.488 165.280  0.00  0.00    +0.000 OA
ATOM     15  C7  UNL     1     144.696 161.332 165.704  0.00  0.00    +0.000 C 
ATOM     16  C9  UNL     1     143.652 161.778 166.717  0.00  0.00    +0.000 C 
ATOM     17  C10 UNL     1     144.100 163.206 166.997  0.00  0.00    +0.000 C 
BRANCH  17  18
ATOM     18  O5  UNL     1     143.986 163.543 168.322  0.00  0.00    +0.000 OA
ATOM     19  H12 UNL     1     143.750 164.499 168.377  0.00  0.00    +0.000 HD
ENDBRANCH  17  18
BRANCH  16  20
ATOM     20  O6  UNL     1     143.809 160.972 167.845  0.00  0.00    +0.000 OA
ATOM     21  H13 UNL     1     144.774 160.888 168.023  0.00  0.00    +0.000 HD
ENDBRANCH  16  20
BRANCH  15  22
ATOM     22  C8  UNL     1     144.007 160.629 164.555  0.00  0.00    +0.000 C 
BRANCH  22  23
ATOM     23  O4  UNL     1     144.930 160.581 163.499  0.00  0.00    +0.000 OA
ATOM     24  H9  UNL     1     145.842 160.508 163.891  0.00  0.00    +0.000 HD
ENDBRANCH  22  23
ENDBRANCH  15  22
ENDBRANCH   3  13
TORSDOF 6
ENDMDL
MODEL 2
REMARK VINA RESULT:      -5.2      2.561      5.939
REMARK  Name = ./3D_structures\o29_MMV1782104_3D.pdb
REMARK  6 active torsions:
REMARK  status: ('A' for Active; 'I' for Inactive)
REMARK    1  A    between atoms: N1_3  and  C6_11
REMARK    2  A    between atoms: C4_7  and  C5_8
REMARK    3  A    between atoms: C7_13  and  C8_14
REMARK    4  A    between atoms: C8_14  and  O4_15
REMARK    5  A    between atoms: C9_16  and  O6_19
REMARK    6  A    between atoms: C10_17  and  O5_18
REMARK                            x       y       z     vdW  Elec       q    Type
REMARK                         _______ _______ _______ _____ _____    ______ ____
ROOT
ATOM      1  O1  UNL     1     145.959 164.833 165.203  0.00  0.00    +0.000 OA
ATOM      2  C1  UNL     1     145.836 164.449 166.415  0.00  0.00    +0.000 A 
ATOM      3  N1  UNL     1     146.901 164.254 167.201  0.00  0.00    +0.000 N 
ATOM      4  C2  UNL     1     146.798 163.845 168.491  0.00  0.00    +0.000 A 
ATOM      5  C3  UNL     1     145.543 163.626 169.002  0.00  0.00    +0.000 A 
ATOM      6  N2  UNL     1     144.457 163.821 168.214  0.00  0.00    +0.000 NA
ATOM      7  C4  UNL     1     144.580 164.226 166.938  0.00  0.00    +0.000 A 
ENDROOT
BRANCH   7   8
ATOM      8  C5  UNL     1     143.418 164.437 166.087  0.00  0.00    +0.000 C 
ATOM      9  O2  UNL     1     142.689 163.492 165.734  0.00  0.00    +0.000 OA
ATOM     10  N3  UNL     1     143.124 165.750 165.658  0.00  0.00    +0.000 N 
ATOM     11  H3  UNL     1     142.370 166.283 166.126  0.00  0.00    +0.000 HD
ATOM     12  H4  UNL     1     143.661 166.176 164.880  0.00  0.00    +0.000 HD
ENDBRANCH   7   8
BRANCH   3  13
ATOM     13  C6  UNL     1     148.209 164.492 166.635  0.00  0.00    +0.000 C 
ATOM     14  O3  UNL     1     149.187 163.714 167.295  0.00  0.00    +0.000 OA
ATOM     15  C7  UNL     1     150.351 164.194 166.701  0.00  0.00    +0.000 C 
ATOM     16  C9  UNL     1     150.211 165.709 166.653  0.00  0.00    +0.000 C 
ATOM     17  C10 UNL     1     148.729 165.880 166.956  0.00  0.00    +0.000 C 
BRANCH  17  18
ATOM     18  O5  UNL     1     148.148 166.866 166.200  0.00  0.00    +0.000 OA
ATOM     19  H12 UNL     1     147.397 166.467 165.700  0.00  0.00    +0.000 HD
ENDBRANCH  17  18
BRANCH  16  20
ATOM     20  O6  UNL     1     150.506 166.104 165.348  0.00  0.00    +0.000 OA
ATOM     21  H13 UNL     1     150.366 167.077 165.289  0.00  0.00    +0.000 HD
ENDBRANCH  16  20
BRANCH  15  22
ATOM     22  C8  UNL     1     151.578 163.833 167.510  0.00  0.00    +0.000 C 
BRANCH  22  23
ATOM     23  O4  UNL     1     152.389 164.978 167.547  0.00  0.00    +0.000 OA
ATOM     24  H9  UNL     1     153.311 164.693 167.794  0.00  0.00    +0.000 HD
ENDBRANCH  22  23
ENDBRANCH  15  22
ENDBRANCH   3  13
TORSDOF 6
ENDMDL
MODEL 3
REMARK VINA RESULT:      -5.1      2.378      3.245
REMARK  Name = ./3D_structures\o29_MMV1782104_3D.pdb
REMARK  6 active torsions:
REMARK  status: ('A' for Active; 'I' for Inactive)
REMARK    1  A    between atoms: N1_3  and  C6_11
REMARK    2  A    between atoms: C4_7  and  C5_8
REMARK    3  A    between atoms: C7_13  and  C8_14
REMARK    4  A    between atoms: C8_14  and  O4_15
REMARK    5  A    between atoms: C9_16  and  O6_19
REMARK    6  A    between atoms: C10_17  and  O5_18
REMARK                            x       y       z     vdW  Elec       q    Type
REMARK                         _______ _______ _______ _____ _____    ______ ____
ROOT
ATOM      1  O1  UNL     1     148.622 165.068 166.514  0.00  0.00    +0.000 OA
ATOM      2  C1  UNL     1     148.065 165.034 167.663  0.00  0.00    +0.000 A 
ATOM      3  N1  UNL     1     146.786 164.669 167.813  0.00  0.00    +0.000 N 
ATOM      4  C2  UNL     1     146.172 164.626 169.022  0.00  0.00    +0.000 A 
ATOM      5  C3  UNL     1     146.901 164.972 170.133  0.00  0.00    +0.000 A 
ATOM      6  N2  UNL     1     148.197 165.343 169.992  0.00  0.00    +0.000 NA
ATOM      7  C4  UNL     1     148.789 165.380 168.785  0.00  0.00    +0.000 A 
ENDROOT
BRANCH   7   8
ATOM      8  C5  UNL     1     150.180 165.778 168.627  0.00  0.00    +0.000 C 
ATOM      9  O2  UNL     1     151.112 165.075 169.059  0.00  0.00    +0.000 OA
ATOM     10  N3  UNL     1     150.465 166.993 167.964  0.00  0.00    +0.000 N 
ATOM     11  H3  UNL     1     150.782 166.975 166.979  0.00  0.00    +0.000 HD
ATOM     12  H4  UNL     1     150.357 167.895 168.463  0.00  0.00    +0.000 HD
ENDBRANCH   7   8
BRANCH   3  13
ATOM     13  C6  UNL     1     146.044 164.311 166.627  0.00  0.00    +0.000 C 
ATOM     14  O3  UNL     1     144.884 165.109 166.505  0.00  0.00    +0.000 OA
ATOM     15  C7  UNL     1     144.269 164.514 165.406  0.00  0.00    +0.000 C 
ATOM     16  C9  UNL     1     144.375 163.011 165.620  0.00  0.00    +0.000 C 
ATOM     17  C10 UNL     1     145.402 162.942 166.743  0.00  0.00    +0.000 C 
BRANCH  17  18
ATOM     18  O5  UNL     1     146.290 161.910 166.580  0.00  0.00    +0.000 OA
ATOM     19  H12 UNL     1     147.168 162.204 166.922  0.00  0.00    +0.000 HD
ENDBRANCH  17  18
BRANCH  16  20
ATOM     20  O6  UNL     1     144.883 162.466 164.441  0.00  0.00    +0.000 OA
ATOM     21  H13 UNL     1     144.827 161.485 164.514  0.00  0.00    +0.000 HD
ENDBRANCH  16  20
BRANCH  15  22
ATOM     22  C8  UNL     1     142.810 164.901 165.309  0.00  0.00    +0.000 C 
BRANCH  22  23
ATOM     23  O4  UNL     1     142.741 166.281 165.555  0.00  0.00    +0.000 OA
ATOM     24  H9  UNL     1     143.637 166.584 165.865  0.00  0.00    +0.000 HD
ENDBRANCH  22  23
ENDBRANCH  15  22
ENDBRANCH   3  13
TORSDOF 6
ENDMDL
MODEL 4
REMARK VINA RESULT:      -5.1      2.562      6.129
REMARK  Name = ./3D_structures\o29_MMV1782104_3D.pdb
REMARK  6 active torsions:
REMARK  status: ('A' for Active; 'I' for Inactive)
REMARK    1  A    between atoms: N1_3  and  C6_11
REMARK    2  A    between atoms: C4_7  and  C5_8
REMARK    3  A    between atoms: C7_13  and  C8_14
REMARK    4  A    between atoms: C8_14  and  O4_15
REMARK    5  A    between atoms: C9_16  and  O6_19
REMARK    6  A    between atoms: C10_17  and  O5_18
REMARK                            x       y       z     vdW  Elec       q    Type
REMARK                         _______ _______ _______ _____ _____    ______ ____
ROOT
ATOM      1  O1  UNL     1     146.527 163.131 166.409  0.00  0.00    +0.000 OA
ATOM      2  C1  UNL     1     146.594 163.734 167.534  0.00  0.00    +0.000 A 
ATOM      3  N1  UNL     1     147.687 164.410 167.904  0.00  0.00    +0.000 N 
ATOM      4  C2  UNL     1     147.782 165.057 169.094  0.00  0.00    +0.000 A 
ATOM      5  C3  UNL     1     146.707 165.010 169.945  0.00  0.00    +0.000 A 
ATOM      6  N2  UNL     1     145.594 164.328 169.579  0.00  0.00    +0.000 NA
ATOM      7  C4  UNL     1     145.518 163.692 168.396  0.00  0.00    +0.000 A 
ENDROOT
BRANCH   7   8
ATOM      8  C5  UNL     1     144.327 162.958 167.997  0.00  0.00    +0.000 C 
ATOM      9  O2  UNL     1     143.325 163.539 167.540  0.00  0.00    +0.000 OA
ATOM     10  N3  UNL     1     144.321 161.551 168.136  0.00  0.00    +0.000 N 
ATOM     11  H3  UNL     1     144.473 160.955 167.304  0.00  0.00    +0.000 HD
ATOM     12  H4  UNL     1     144.166 161.122 169.067  0.00  0.00    +0.000 HD
ENDBRANCH   7   8
BRANCH   3  13
ATOM     13  C6  UNL     1     148.803 164.441 166.988  0.00  0.00    +0.000 C 
ATOM     14  O3  UNL     1     149.981 163.985 167.622  0.00  0.00    +0.000 OA
ATOM     15  C7  UNL     1     150.926 164.228 166.628  0.00  0.00    +0.000 C 
ATOM     16  C9  UNL     1     150.615 165.610 166.073  0.00  0.00    +0.000 C 
ATOM     17  C10 UNL     1     149.228 165.857 166.649  0.00  0.00    +0.000 C 
BRANCH  17  18
ATOM     18  O5  UNL     1     148.390 166.476 165.755  0.00  0.00    +0.000 OA
ATOM     19  H12 UNL     1     148.348 165.922 164.940  0.00  0.00    +0.000 HD
ENDBRANCH  17  18
BRANCH  16  20
ATOM     20  O6  UNL     1     150.569 165.491 164.683  0.00  0.00    +0.000 OA
ATOM     21  H13 UNL     1     151.043 166.265 164.299  0.00  0.00    +0.000 HD
ENDBRANCH  16  20
BRANCH  15  22
ATOM     22  C8  UNL     1     152.333 164.220 167.185  0.00  0.00    +0.000 C 
BRANCH  22  23
ATOM     23  O4  UNL     1     153.159 164.790 166.204  0.00  0.00    +0.000 OA
ATOM     24  H9  UNL     1     153.256 164.133 165.463  0.00  0.00    +0.000 HD
ENDBRANCH  22  23
ENDBRANCH  15  22
ENDBRANCH   3  13
TORSDOF 6
ENDMDL
MODEL 5
REMARK VINA RESULT:      -5.1      2.999      4.903
REMARK  Name = ./3D_structures\o29_MMV1782104_3D.pdb
REMARK  6 active torsions:
REMARK  status: ('A' for Active; 'I' for Inactive)
REMARK    1  A    between atoms: N1_3  and  C6_11
REMARK    2  A    between atoms: C4_7  and  C5_8
REMARK    3  A    between atoms: C7_13  and  C8_14
REMARK    4  A    between atoms: C8_14  and  O4_15
REMARK    5  A    between atoms: C9_16  and  O6_19
REMARK    6  A    between atoms: C10_17  and  O5_18
REMARK                            x       y       z     vdW  Elec       q    Type
REMARK                         _______ _______ _______ _____ _____    ______ ____
ROOT
ATOM      1  O1  UNL     1     146.806 163.037 166.726  0.00  0.00    +0.000 OA
ATOM      2  C1  UNL     1     147.435 163.409 167.774  0.00  0.00    +0.000 A 
ATOM      3  N1  UNL     1     147.356 164.664 168.232  0.00  0.00    +0.000 N 
ATOM      4  C2  UNL     1     148.014 165.084 169.342  0.00  0.00    +0.000 A 
ATOM      5  C3  UNL     1     148.791 164.175 170.017  0.00  0.00    +0.000 A 
ATOM      6  N2  UNL     1     148.877 162.901 169.562  0.00  0.00    +0.000 NA
ATOM      7  C4  UNL     1     148.217 162.504 168.460  0.00  0.00    +0.000 A 
ENDROOT
BRANCH   7   8
ATOM      8  C5  UNL     1     148.306 161.137 167.965  0.00  0.00    +0.000 C 
ATOM      9  O2  UNL     1     147.626 160.220 168.461  0.00  0.00    +0.000 OA
ATOM     10  N3  UNL     1     149.189 160.860 166.898  0.00  0.00    +0.000 N 
ATOM     11  H3  UNL     1     148.813 160.751 165.940  0.00  0.00    +0.000 HD
ATOM     12  H4  UNL     1     150.206 160.768 167.075  0.00  0.00    +0.000 HD
ENDBRANCH   7   8
BRANCH   3  13
ATOM     13  C6  UNL     1     146.531 165.597 167.500  0.00  0.00    +0.000 C 
ATOM     14  O3  UNL     1     145.317 164.989 167.108  0.00  0.00    +0.000 OA
ATOM     15  C7  UNL     1     144.761 165.994 166.321  0.00  0.00    +0.000 C 
ATOM     16  C9  UNL     1     145.887 166.524 165.447  0.00  0.00    +0.000 C 
ATOM     17  C10 UNL     1     147.105 165.922 166.134  0.00  0.00    +0.000 C 
BRANCH  17  18
ATOM     18  O5  UNL     1     148.164 166.794 166.184  0.00  0.00    +0.000 OA
ATOM     19  H12 UNL     1     148.022 167.489 165.499  0.00  0.00    +0.000 HD
ENDBRANCH  17  18
BRANCH  16  20
ATOM     20  O6  UNL     1     145.877 167.914 165.566  0.00  0.00    +0.000 OA
ATOM     21  H13 UNL     1     145.539 168.136 166.465  0.00  0.00    +0.000 HD
ENDBRANCH  16  20
BRANCH  15  22
ATOM     22  C8  UNL     1     143.654 165.459 165.438  0.00  0.00    +0.000 C 
BRANCH  22  23
ATOM     23  O4  UNL     1     142.591 166.372 165.524  0.00  0.00    +0.000 OA
ATOM     24  H9  UNL     1     142.413 166.546 166.488  0.00  0.00    +0.000 HD
ENDBRANCH  22  23
ENDBRANCH  15  22
ENDBRANCH   3  13
TORSDOF 6
ENDMDL
MODEL 6
REMARK VINA RESULT:      -5.1      2.816      3.763
REMARK  Name = ./3D_structures\o29_MMV1782104_3D.pdb
REMARK  6 active torsions:
REMARK  status: ('A' for Active; 'I' for Inactive)
REMARK    1  A    between atoms: N1_3  and  C6_11
REMARK    2  A    between atoms: C4_7  and  C5_8
REMARK    3  A    between atoms: C7_13  and  C8_14
REMARK    4  A    between atoms: C8_14  and  O4_15
REMARK    5  A    between atoms: C9_16  and  O6_19
REMARK    6  A    between atoms: C10_17  and  O5_18
REMARK                            x       y       z     vdW  Elec       q    Type
REMARK                         _______ _______ _______ _____ _____    ______ ____
ROOT
ATOM      1  O1  UNL     1     147.802 162.544 167.216  0.00  0.00    +0.000 OA
ATOM      2  C1  UNL     1     147.613 163.341 168.197  0.00  0.00    +0.000 A 
ATOM      3  N1  UNL     1     146.522 164.111 168.275  0.00  0.00    +0.000 N 
ATOM      4  C2  UNL     1     146.298 164.966 169.305  0.00  0.00    +0.000 A 
ATOM      5  C3  UNL     1     147.237 165.036 170.304  0.00  0.00    +0.000 A 
ATOM      6  N2  UNL     1     148.346 164.260 170.234  0.00  0.00    +0.000 NA
ATOM      7  C4  UNL     1     148.550 163.419 169.205  0.00  0.00    +0.000 A 
ENDROOT
BRANCH   7   8
ATOM      8  C5  UNL     1     149.739 162.583 169.124  0.00  0.00    +0.000 C 
ATOM      9  O2  UNL     1     149.863 161.558 169.818  0.00  0.00    +0.000 OA
ATOM     10  N3  UNL     1     150.769 162.956 168.231  0.00  0.00    +0.000 N 
ATOM     11  H3  UNL     1     150.859 162.468 167.323  0.00  0.00    +0.000 HD
ATOM     12  H4  UNL     1     151.428 163.715 168.485  0.00  0.00    +0.000 HD
ENDBRANCH   7   8
BRANCH   3  13
ATOM     13  C6  UNL     1     145.552 164.016 167.209  0.00  0.00    +0.000 C 
ATOM     14  O3  UNL     1     145.280 165.293 166.667  0.00  0.00    +0.000 OA
ATOM     15  C7  UNL     1     144.248 164.990 165.782  0.00  0.00    +0.000 C 
ATOM     16  C9  UNL     1     143.311 164.050 166.526  0.00  0.00    +0.000 C 
ATOM     17  C10 UNL     1     144.170 163.657 167.720  0.00  0.00    +0.000 C 
BRANCH  17  18
ATOM     18  O5  UNL     1     144.040 162.331 168.047  0.00  0.00    +0.000 OA
ATOM     19  H12 UNL     1     144.913 162.009 168.374  0.00  0.00    +0.000 HD
ENDBRANCH  17  18
BRANCH  16  20
ATOM     20  O6  UNL     1     143.081 162.957 165.690  0.00  0.00    +0.000 OA
ATOM     21  H13 UNL     1     143.603 163.094 164.866  0.00  0.00    +0.000 HD
ENDBRANCH  16  20
BRANCH  15  22
ATOM     22  C8  UNL     1     143.486 166.231 165.371  0.00  0.00    +0.000 C 
BRANCH  22  23
ATOM     23  O4  UNL     1     142.125 165.956 165.577  0.00  0.00    +0.000 OA
ATOM     24  H9  UNL     1     142.057 165.110 166.096  0.00  0.00    +0.000 HD
ENDBRANCH  22  23
ENDBRANCH  15  22
ENDBRANCH   3  13
TORSDOF 6
ENDMDL
MODEL 7
REMARK VINA RESULT:      -4.9      3.625      6.426
REMARK  Name = ./3D_structures\o29_MMV1782104_3D.pdb
REMARK  6 active torsions:
REMARK  status: ('A' for Active; 'I' for Inactive)
REMARK    1  A    between atoms: N1_3  and  C6_11
REMARK    2  A    between atoms: C4_7  and  C5_8
REMARK    3  A    between atoms: C7_13  and  C8_14
REMARK    4  A    between atoms: C8_14  and  O4_15
REMARK    5  A    between atoms: C9_16  and  O6_19
REMARK    6  A    between atoms: C10_17  and  O5_18
REMARK                            x       y       z     vdW  Elec       q    Type
REMARK                         _______ _______ _______ _____ _____    ______ ____
ROOT
ATOM      1  O1  UNL     1     147.830 165.774 167.315  0.00  0.00    +0.000 OA
ATOM      2  C1  UNL     1     148.217 164.634 167.747  0.00  0.00    +0.000 A 
ATOM      3  N1  UNL     1     149.348 164.066 167.313  0.00  0.00    +0.000 N 
ATOM      4  C2  UNL     1     149.779 162.858 167.756  0.00  0.00    +0.000 A 
ATOM      5  C3  UNL     1     149.016 162.199 168.687  0.00  0.00    +0.000 A 
ATOM      6  N2  UNL     1     147.868 162.766 169.133  0.00  0.00    +0.000 NA
ATOM      7  C4  UNL     1     147.457 163.964 168.683  0.00  0.00    +0.000 A 
ENDROOT
BRANCH   7   8
ATOM      8  C5  UNL     1     146.226 164.579 169.157  0.00  0.00    +0.000 C 
ATOM      9  O2  UNL     1     145.116 164.257 168.694  0.00  0.00    +0.000 OA
ATOM     10  N3  UNL     1     146.307 165.563 170.168  0.00  0.00    +0.000 N 
ATOM     11  H3  UNL     1     146.079 165.311 171.145  0.00  0.00    +0.000 HD
ATOM     12  H4  UNL     1     146.594 166.530 169.930  0.00  0.00    +0.000 HD
ENDBRANCH   7   8
BRANCH   3  13
ATOM     13  C6  UNL     1     150.129 164.784 166.333  0.00  0.00    +0.000 C 
ATOM     14  O3  UNL     1     150.830 163.883 165.499  0.00  0.00    +0.000 OA
ATOM     15  C7  UNL     1     151.602 164.766 164.747  0.00  0.00    +0.000 C 
ATOM     16  C9  UNL     1     152.158 165.787 165.728  0.00  0.00    +0.000 C 
ATOM     17  C10 UNL     1     151.301 165.517 166.957  0.00  0.00    +0.000 C 
BRANCH  17  18
ATOM     18  O5  UNL     1     150.936 166.669 167.607  0.00  0.00    +0.000 OA
ATOM     19  H12 UNL     1     151.114 166.548 168.569  0.00  0.00    +0.000 HD
ENDBRANCH  17  18
BRANCH  16  20
ATOM     20  O6  UNL     1     151.892 167.049 165.197  0.00  0.00    +0.000 OA
ATOM     21  H13 UNL     1     152.200 167.721 165.848  0.00  0.00    +0.000 HD
ENDBRANCH  16  20
BRANCH  15  22
ATOM     22  C8  UNL     1     152.749 164.056 164.063  0.00  0.00    +0.000 C 
BRANCH  22  23
ATOM     23  O4  UNL     1     152.207 162.924 163.434  0.00  0.00    +0.000 OA
ATOM     24  H9  UNL     1     152.619 162.847 162.531  0.00  0.00    +0.000 HD
ENDBRANCH  22  23
ENDBRANCH  15  22
ENDBRANCH   3  13
TORSDOF 6
ENDMDL
MODEL 8
REMARK VINA RESULT:      -4.9      2.408      3.215
REMARK  Name = ./3D_structures\o29_MMV1782104_3D.pdb
REMARK  6 active torsions:
REMARK  status: ('A' for Active; 'I' for Inactive)
REMARK    1  A    between atoms: N1_3  and  C6_11
REMARK    2  A    between atoms: C4_7  and  C5_8
REMARK    3  A    between atoms: C7_13  and  C8_14
REMARK    4  A    between atoms: C8_14  and  O4_15
REMARK    5  A    between atoms: C9_16  and  O6_19
REMARK    6  A    between atoms: C10_17  and  O5_18
REMARK                            x       y       z     vdW  Elec       q    Type
REMARK                         _______ _______ _______ _____ _____    ______ ____
ROOT
ATOM      1  O1  UNL     1     145.350 164.315 164.942  0.00  0.00    +0.000 OA
ATOM      2  C1  UNL     1     145.497 164.407 166.208  0.00  0.00    +0.000 A 
ATOM      3  N1  UNL     1     145.441 163.332 167.001  0.00  0.00    +0.000 N 
ATOM      4  C2  UNL     1     145.593 163.403 168.348  0.00  0.00    +0.000 A 
ATOM      5  C3  UNL     1     145.812 164.636 168.910  0.00  0.00    +0.000 A 
ATOM      6  N2  UNL     1     145.871 165.732 168.115  0.00  0.00    +0.000 NA
ATOM      7  C4  UNL     1     145.718 165.641 166.782  0.00  0.00    +0.000 A 
ENDROOT
BRANCH   7   8
ATOM      8  C5  UNL     1     145.780 166.814 165.923  0.00  0.00    +0.000 C 
ATOM      9  O2  UNL     1     146.864 167.347 165.624  0.00  0.00    +0.000 OA
ATOM     10  N3  UNL     1     144.571 167.351 165.424  0.00  0.00    +0.000 N 
ATOM     11  H3  UNL     1     144.290 167.154 164.448  0.00  0.00    +0.000 HD
ATOM     12  H4  UNL     1     143.973 167.939 166.033  0.00  0.00    +0.000 HD
ENDBRANCH   7   8
BRANCH   3  13
ATOM     13  C6  UNL     1     145.208 162.048 166.380  0.00  0.00    +0.000 C 
ATOM     14  O3  UNL     1     143.857 161.662 166.528  0.00  0.00    +0.000 OA
ATOM     15  C7  UNL     1     143.892 160.374 165.998  0.00  0.00    +0.000 C 
ATOM     16  C9  UNL     1     145.140 159.714 166.564  0.00  0.00    +0.000 C 
ATOM     17  C10 UNL     1     145.881 160.916 167.133  0.00  0.00    +0.000 C 
BRANCH  17  18
ATOM     18  O5  UNL     1     147.234 160.850 166.918  0.00  0.00    +0.000 OA
ATOM     19  H12 UNL     1     147.436 159.979 166.499  0.00  0.00    +0.000 HD
ENDBRANCH  17  18
BRANCH  16  20
ATOM     20  O6  UNL     1     145.832 159.159 165.487  0.00  0.00    +0.000 OA
ATOM     21  H13 UNL     1     146.287 159.893 165.012  0.00  0.00    +0.000 HD
ENDBRANCH  16  20
BRANCH  15  22
ATOM     22  C8  UNL     1     142.675 159.572 166.406  0.00  0.00    +0.000 C 
BRANCH  22  23
ATOM     23  O4  UNL     1     142.898 158.254 165.979  0.00  0.00    +0.000 OA
ATOM     24  H9  UNL     1     142.654 158.197 165.016  0.00  0.00    +0.000 HD
ENDBRANCH  22  23
ENDBRANCH  15  22
ENDBRANCH   3  13
TORSDOF 6
ENDMDL
MODEL 9
REMARK VINA RESULT:      -4.9      2.149      5.881
REMARK  Name = ./3D_structures\o29_MMV1782104_3D.pdb
REMARK  6 active torsions:
REMARK  status: ('A' for Active; 'I' for Inactive)
REMARK    1  A    between atoms: N1_3  and  C6_11
REMARK    2  A    between atoms: C4_7  and  C5_8
REMARK    3  A    between atoms: C7_13  and  C8_14
REMARK    4  A    between atoms: C8_14  and  O4_15
REMARK    5  A    between atoms: C9_16  and  O6_19
REMARK    6  A    between atoms: C10_17  and  O5_18
REMARK                            x       y       z     vdW  Elec       q    Type
REMARK                         _______ _______ _______ _____ _____    ______ ____
ROOT
ATOM      1  O1  UNL     1     146.488 162.506 166.487  0.00  0.00    +0.000 OA
ATOM      2  C1  UNL     1     145.893 163.620 166.287  0.00  0.00    +0.000 A 
ATOM      3  N1  UNL     1     146.407 164.777 166.717  0.00  0.00    +0.000 N 
ATOM      4  C2  UNL     1     145.795 165.972 166.517  0.00  0.00    +0.000 A 
ATOM      5  C3  UNL     1     144.598 165.982 165.844  0.00  0.00    +0.000 A 
ATOM      6  N2  UNL     1     144.069 164.814 165.404  0.00  0.00    +0.000 NA
ATOM      7  C4  UNL     1     144.690 163.640 165.612  0.00  0.00    +0.000 A 
ENDROOT
BRANCH   7   8
ATOM      8  C5  UNL     1     144.128 162.383 165.142  0.00  0.00    +0.000 C 
ATOM      9  O2  UNL     1     143.074 161.922 165.618  0.00  0.00    +0.000 OA
ATOM     10  N3  UNL     1     144.804 161.679 164.121  0.00  0.00    +0.000 N 
ATOM     11  H3  UNL     1     144.455 161.730 163.148  0.00  0.00    +0.000 HD
ATOM     12  H4  UNL     1     145.645 161.116 164.346  0.00  0.00    +0.000 HD
ENDBRANCH   7   8
BRANCH   3  13
ATOM     13  C6  UNL     1     147.667 164.735 167.422  0.00  0.00    +0.000 C 
ATOM     14  O3  UNL     1     147.495 165.116 168.772  0.00  0.00    +0.000 OA
ATOM     15  C7  UNL     1     148.817 165.140 169.210  0.00  0.00    +0.000 C 
ATOM     16  C9  UNL     1     149.616 165.834 168.116  0.00  0.00    +0.000 C 
ATOM     17  C10 UNL     1     148.617 165.826 166.967  0.00  0.00    +0.000 C 
BRANCH  17  18
ATOM     18  O5  UNL     1     149.208 165.561 165.758  0.00  0.00    +0.000 OA
ATOM     19  H12 UNL     1     148.558 165.771 165.046  0.00  0.00    +0.000 HD
ENDBRANCH  17  18
BRANCH  16  20
ATOM     20  O6  UNL     1     150.713 165.020 167.834  0.00  0.00    +0.000 OA
ATOM     21  H13 UNL     1     150.418 164.326 167.200  0.00  0.00    +0.000 HD
ENDBRANCH  16  20
BRANCH  15  22
ATOM     22  C8  UNL     1     148.961 165.916 170.501  0.00  0.00    +0.000 C 
BRANCH  22  23
ATOM     23  O4  UNL     1     149.716 165.114 171.372  0.00  0.00    +0.000 OA
ATOM     24  H9  UNL     1     150.154 164.401 170.832  0.00  0.00    +0.000 HD
ENDBRANCH  22  23
ENDBRANCH  15  22
ENDBRANCH   3  13
TORSDOF 6
ENDMDL
