MODEL 1
REMARK VINA RESULT:      -6.4      0.000      0.000
REMARK  Name = ./3D_structures\o2_MMV642550_3D.pdb
REMARK  5 active torsions:
REMARK  status: ('A' for Active; 'I' for Inactive)
REMARK    1  A    between atoms: N2_6  and  C4_7
REMARK    2  A    between atoms: C4_7  and  C5_8
REMARK    3  A    between atoms: C4_7  and  C14_19
REMARK    4  A    between atoms: C6_9  and  O1_10
REMARK    5  A    between atoms: C16_21  and  O2_25
REMARK                            x       y       z     vdW  Elec       q    Type
REMARK                         _______ _______ _______ _____ _____    ______ ____
ROOT
ATOM      1  C4  UNL     1     149.024 164.724 166.426  0.00  0.00    +0.000 C 
ENDROOT
BRANCH   1   2
ATOM      2  C5  UNL     1     149.413 164.844 167.848  0.00  0.00    +0.000 A 
ATOM      3  C6  UNL     1     149.828 166.026 168.416  0.00  0.00    +0.000 A 
ATOM      4  C7  UNL     1     150.192 166.106 169.755  0.00  0.00    +0.000 A 
ATOM      5  N3  UNL     1     150.593 167.298 170.258  0.00  0.00    +0.000 NA
ATOM      6  C8  UNL     1     150.962 167.457 171.541  0.00  0.00    +0.000 A 
ATOM      7  C9  UNL     1     150.917 166.337 172.345  0.00  0.00    +0.000 A 
ATOM      8  C10 UNL     1     150.513 165.108 171.864  0.00  0.00    +0.000 A 
ATOM      9  C11 UNL     1     150.136 164.975 170.529  0.00  0.00    +0.000 A 
ATOM     10  C12 UNL     1     149.731 163.787 170.001  0.00  0.00    +0.000 A 
ATOM     11  C13 UNL     1     149.367 163.727 168.650  0.00  0.00    +0.000 A 
BRANCH   3  12
ATOM     12  O1  UNL     1     149.896 167.186 167.667  0.00  0.00    +0.000 OA
ATOM     13  H5  UNL     1     149.652 167.185 166.692  0.00  0.00    +0.000 HD
ENDBRANCH   3  12
ENDBRANCH   1   2
BRANCH   1  19
ATOM     14  S1  UNL     1     151.822 163.366 165.558  0.00  0.00    +0.000 S 
ATOM     15  C1  UNL     1     151.131 165.014 165.109  0.00  0.00    +0.000 A 
ATOM     16  N1  UNL     1     152.068 165.439 164.377  0.00  0.00    +0.000 NA
ATOM     17  C2  UNL     1     153.143 164.867 164.072  0.00  0.00    +0.000 A 
ATOM     18  C3  UNL     1     153.393 163.564 164.591  0.00  0.00    +0.000 A 
ATOM     19  N2  UNL     1     149.888 165.495 165.553  0.00  0.00    +0.000 N 
ATOM     20  H3  UNL     1     149.601 166.443 165.230  0.00  0.00    +0.000 HD
ENDBRANCH   1  19
BRANCH   1  21
ATOM     21  C14 UNL     1     147.632 165.216 166.277  0.00  0.00    +0.000 A 
ATOM     22  C15 UNL     1     147.294 166.507 165.941  0.00  0.00    +0.000 A 
ATOM     23  C16 UNL     1     145.960 166.897 165.819  0.00  0.00    +0.000 A 
ATOM     24  C17 UNL     1     144.982 165.970 166.041  0.00  0.00    +0.000 A 
ATOM     25  C18 UNL     1     145.280 164.671 166.380  0.00  0.00    +0.000 A 
ATOM     26  C19 UNL     1     146.615 164.310 166.494  0.00  0.00    +0.000 A 
BRANCH  23  27
ATOM     27  O2  UNL     1     145.608 168.193 165.481  0.00  0.00    +0.000 OA
ATOM     28  H15 UNL     1     145.033 168.739 166.117  0.00  0.00    +0.000 HD
ENDBRANCH  23  27
ENDBRANCH   1  21
TORSDOF 5
ENDMDL
MODEL 2
REMARK VINA RESULT:      -6.4      2.622      6.132
REMARK  Name = ./3D_structures\o2_MMV642550_3D.pdb
REMARK  5 active torsions:
REMARK  status: ('A' for Active; 'I' for Inactive)
REMARK    1  A    between atoms: N2_6  and  C4_7
REMARK    2  A    between atoms: C4_7  and  C5_8
REMARK    3  A    between atoms: C4_7  and  C14_19
REMARK    4  A    between atoms: C6_9  and  O1_10
REMARK    5  A    between atoms: C16_21  and  O2_25
REMARK                            x       y       z     vdW  Elec       q    Type
REMARK                         _______ _______ _______ _____ _____    ______ ____
ROOT
ATOM      1  C4  UNL     1     149.184 165.291 166.694  0.00  0.00    +0.000 C 
ENDROOT
BRANCH   1   2
ATOM      2  C5  UNL     1     150.447 164.991 165.986  0.00  0.00    +0.000 A 
ATOM      3  C6  UNL     1     151.127 163.805 166.133  0.00  0.00    +0.000 A 
ATOM      4  C7  UNL     1     152.316 163.555 165.458  0.00  0.00    +0.000 A 
ATOM      5  N3  UNL     1     152.941 162.367 165.645  0.00  0.00    +0.000 NA
ATOM      6  C8  UNL     1     154.094 162.050 165.030  0.00  0.00    +0.000 A 
ATOM      7  C9  UNL     1     154.630 162.998 164.183  0.00  0.00    +0.000 A 
ATOM      8  C10 UNL     1     154.017 164.217 163.971  0.00  0.00    +0.000 A 
ATOM      9  C11 UNL     1     152.822 164.517 164.623  0.00  0.00    +0.000 A 
ATOM     10  C12 UNL     1     152.178 165.704 164.453  0.00  0.00    +0.000 A 
ATOM     11  C13 UNL     1     150.981 165.937 165.141  0.00  0.00    +0.000 A 
BRANCH   3  12
ATOM     12  O1  UNL     1     150.646 162.812 166.966  0.00  0.00    +0.000 OA
ATOM     13  H5  UNL     1     151.272 162.274 167.540  0.00  0.00    +0.000 HD
ENDBRANCH   3  12
ENDBRANCH   1   2
BRANCH   1  19
ATOM     14  S1  UNL     1     145.967 165.074 166.517  0.00  0.00    +0.000 S 
ATOM     15  C1  UNL     1     147.081 166.438 165.973  0.00  0.00    +0.000 A 
ATOM     16  N1  UNL     1     146.218 167.240 165.518  0.00  0.00    +0.000 NA
ATOM     17  C2  UNL     1     144.971 167.104 165.471  0.00  0.00    +0.000 A 
ATOM     18  C3  UNL     1     144.397 165.906 165.985  0.00  0.00    +0.000 A 
ATOM     19  N2  UNL     1     148.478 166.414 166.107  0.00  0.00    +0.000 N 
ATOM     20  H3  UNL     1     149.004 167.246 165.765  0.00  0.00    +0.000 HD
ENDBRANCH   1  19
BRANCH   1  21
ATOM     21  C14 UNL     1     149.503 165.612 168.107  0.00  0.00    +0.000 A 
ATOM     22  C15 UNL     1     150.390 166.586 168.503  0.00  0.00    +0.000 A 
ATOM     23  C16 UNL     1     150.639 166.831 169.854  0.00  0.00    +0.000 A 
ATOM     24  C17 UNL     1     149.983 166.083 170.789  0.00  0.00    +0.000 A 
ATOM     25  C18 UNL     1     149.090 165.101 170.433  0.00  0.00    +0.000 A 
ATOM     26  C19 UNL     1     148.860 164.878 169.082  0.00  0.00    +0.000 A 
BRANCH  23  27
ATOM     27  O2  UNL     1     151.531 167.809 170.264  0.00  0.00    +0.000 OA
ATOM     28  H15 UNL     1     152.116 168.274 169.576  0.00  0.00    +0.000 HD
ENDBRANCH  23  27
ENDBRANCH   1  21
TORSDOF 5
ENDMDL
MODEL 3
REMARK VINA RESULT:      -6.3      2.163      6.030
REMARK  Name = ./3D_structures\o2_MMV642550_3D.pdb
REMARK  5 active torsions:
REMARK  status: ('A' for Active; 'I' for Inactive)
REMARK    1  A    between atoms: N2_6  and  C4_7
REMARK    2  A    between atoms: C4_7  and  C5_8
REMARK    3  A    between atoms: C4_7  and  C14_19
REMARK    4  A    between atoms: C6_9  and  O1_10
REMARK    5  A    between atoms: C16_21  and  O2_25
REMARK                            x       y       z     vdW  Elec       q    Type
REMARK                         _______ _______ _______ _____ _____    ______ ____
ROOT
ATOM      1  C4  UNL     1     150.291 164.924 167.728  0.00  0.00    +0.000 C 
ENDROOT
BRANCH   1   2
ATOM      2  C5  UNL     1     148.875 164.734 167.347  0.00  0.00    +0.000 A 
ATOM      3  C6  UNL     1     148.104 165.732 166.801  0.00  0.00    +0.000 A 
ATOM      4  C7  UNL     1     146.773 165.524 166.458  0.00  0.00    +0.000 A 
ATOM      5  N3  UNL     1     146.063 166.547 165.924  0.00  0.00    +0.000 NA
ATOM      6  C8  UNL     1     144.773 166.426 165.567  0.00  0.00    +0.000 A 
ATOM      7  C9  UNL     1     144.183 165.195 165.769  0.00  0.00    +0.000 A 
ATOM      8  C10 UNL     1     144.879 164.132 166.311  0.00  0.00    +0.000 A 
ATOM      9  C11 UNL     1     146.217 164.289 166.670  0.00  0.00    +0.000 A 
ATOM     10  C12 UNL     1     146.949 163.276 167.210  0.00  0.00    +0.000 A 
ATOM     11  C13 UNL     1     148.288 163.506 167.549  0.00  0.00    +0.000 A 
BRANCH   3  12
ATOM     12  O1  UNL     1     148.631 166.989 166.571  0.00  0.00    +0.000 OA
ATOM     13  H5  UNL     1     148.044 167.746 166.267  0.00  0.00    +0.000 HD
ENDBRANCH   3  12
ENDBRANCH   1   2
BRANCH   1  19
ATOM     14  S1  UNL     1     150.678 164.634 170.921  0.00  0.00    +0.000 S 
ATOM     15  C1  UNL     1     150.676 166.150 169.874  0.00  0.00    +0.000 A 
ATOM     16  N1  UNL     1     150.866 167.020 170.770  0.00  0.00    +0.000 NA
ATOM     17  C2  UNL     1     151.008 166.852 172.005  0.00  0.00    +0.000 A 
ATOM     18  C3  UNL     1     150.959 165.526 172.523  0.00  0.00    +0.000 A 
ATOM     19  N2  UNL     1     150.498 166.146 168.481  0.00  0.00    +0.000 N 
ATOM     20  H3  UNL     1     150.520 167.067 167.995  0.00  0.00    +0.000 HD
ENDBRANCH   1  19
BRANCH   1  21
ATOM     21  C14 UNL     1     151.107 164.981 166.490  0.00  0.00    +0.000 A 
ATOM     22  C15 UNL     1     151.140 163.994 165.532  0.00  0.00    +0.000 A 
ATOM     23  C16 UNL     1     151.934 164.119 164.391  0.00  0.00    +0.000 A 
ATOM     24  C17 UNL     1     152.686 165.248 164.236  0.00  0.00    +0.000 A 
ATOM     25  C18 UNL     1     152.680 166.256 165.170  0.00  0.00    +0.000 A 
ATOM     26  C19 UNL     1     151.882 166.106 166.295  0.00  0.00    +0.000 A 
BRANCH  23  27
ATOM     27  O2  UNL     1     151.975 163.131 163.421  0.00  0.00    +0.000 OA
ATOM     28  H15 UNL     1     152.873 162.801 163.079  0.00  0.00    +0.000 HD
ENDBRANCH  23  27
ENDBRANCH   1  21
TORSDOF 5
ENDMDL
MODEL 4
REMARK VINA RESULT:      -6.3      2.858      5.700
REMARK  Name = ./3D_structures\o2_MMV642550_3D.pdb
REMARK  5 active torsions:
REMARK  status: ('A' for Active; 'I' for Inactive)
REMARK    1  A    between atoms: N2_6  and  C4_7
REMARK    2  A    between atoms: C4_7  and  C5_8
REMARK    3  A    between atoms: C4_7  and  C14_19
REMARK    4  A    between atoms: C6_9  and  O1_10
REMARK    5  A    between atoms: C16_21  and  O2_25
REMARK                            x       y       z     vdW  Elec       q    Type
REMARK                         _______ _______ _______ _____ _____    ______ ____
ROOT
ATOM      1  C4  UNL     1     148.488 165.093 168.944  0.00  0.00    +0.000 C 
ENDROOT
BRANCH   1   2
ATOM      2  C5  UNL     1     149.352 164.884 167.762  0.00  0.00    +0.000 A 
ATOM      3  C6  UNL     1     150.057 163.724 167.544  0.00  0.00    +0.000 A 
ATOM      4  C7  UNL     1     150.866 163.559 166.425  0.00  0.00    +0.000 A 
ATOM      5  N3  UNL     1     151.537 162.393 166.265  0.00  0.00    +0.000 NA
ATOM      6  C8  UNL     1     152.339 162.157 165.212  0.00  0.00    +0.000 A 
ATOM      7  C9  UNL     1     152.458 163.167 164.281  0.00  0.00    +0.000 A 
ATOM      8  C10 UNL     1     151.788 164.367 164.415  0.00  0.00    +0.000 A 
ATOM      9  C11 UNL     1     150.963 164.582 165.518  0.00  0.00    +0.000 A 
ATOM     10  C12 UNL     1     150.280 165.746 165.701  0.00  0.00    +0.000 A 
ATOM     11  C13 UNL     1     149.470 165.892 166.834  0.00  0.00    +0.000 A 
BRANCH   3  12
ATOM     12  O1  UNL     1     149.983 162.671 168.437  0.00  0.00    +0.000 OA
ATOM     13  H5  UNL     1     149.139 162.491 168.952  0.00  0.00    +0.000 HD
ENDBRANCH   3  12
ENDBRANCH   1   2
BRANCH   1  19
ATOM     14  S1  UNL     1     150.256 167.103 170.749  0.00  0.00    +0.000 S 
ATOM     15  C1  UNL     1     149.862 165.323 171.021  0.00  0.00    +0.000 A 
ATOM     16  N1  UNL     1     150.485 165.137 172.104  0.00  0.00    +0.000 NA
ATOM     17  C2  UNL     1     151.163 165.958 172.767  0.00  0.00    +0.000 A 
ATOM     18  C3  UNL     1     151.282 167.293 172.283  0.00  0.00    +0.000 A 
ATOM     19  N2  UNL     1     149.072 164.550 170.155  0.00  0.00    +0.000 N 
ATOM     20  H3  UNL     1     148.915 163.553 170.415  0.00  0.00    +0.000 HD
ENDBRANCH   1  19
BRANCH   1  21
ATOM     21  C14 UNL     1     147.187 164.422 168.698  0.00  0.00    +0.000 A 
ATOM     22  C15 UNL     1     146.824 163.207 169.231  0.00  0.00    +0.000 A 
ATOM     23  C16 UNL     1     145.580 162.638 168.955  0.00  0.00    +0.000 A 
ATOM     24  C17 UNL     1     144.718 163.311 168.137  0.00  0.00    +0.000 A 
ATOM     25  C18 UNL     1     145.044 164.526 167.585  0.00  0.00    +0.000 A 
ATOM     26  C19 UNL     1     146.287 165.070 167.877  0.00  0.00    +0.000 A 
BRANCH  23  27
ATOM     27  O2  UNL     1     145.205 161.415 169.486  0.00  0.00    +0.000 OA
ATOM     28  H15 UNL     1     144.321 160.998 169.208  0.00  0.00    +0.000 HD
ENDBRANCH  23  27
ENDBRANCH   1  21
TORSDOF 5
ENDMDL
MODEL 5
REMARK VINA RESULT:      -6.2      1.840      5.213
REMARK  Name = ./3D_structures\o2_MMV642550_3D.pdb
REMARK  5 active torsions:
REMARK  status: ('A' for Active; 'I' for Inactive)
REMARK    1  A    between atoms: N2_6  and  C4_7
REMARK    2  A    between atoms: C4_7  and  C5_8
REMARK    3  A    between atoms: C4_7  and  C14_19
REMARK    4  A    between atoms: C6_9  and  O1_10
REMARK    5  A    between atoms: C16_21  and  O2_25
REMARK                            x       y       z     vdW  Elec       q    Type
REMARK                         _______ _______ _______ _____ _____    ______ ____
ROOT
ATOM      1  C4  UNL     1     150.060 164.755 167.584  0.00  0.00    +0.000 C 
ENDROOT
BRANCH   1   2
ATOM      2  C5  UNL     1     148.617 164.715 167.261  0.00  0.00    +0.000 A 
ATOM      3  C6  UNL     1     147.951 165.762 166.669  0.00  0.00    +0.000 A 
ATOM      4  C7  UNL     1     146.592 165.696 166.382  0.00  0.00    +0.000 A 
ATOM      5  N3  UNL     1     145.991 166.760 165.798  0.00  0.00    +0.000 NA
ATOM      6  C8  UNL     1     144.682 166.775 165.490  0.00  0.00    +0.000 A 
ATOM      7  C9  UNL     1     143.957 165.642 165.797  0.00  0.00    +0.000 A 
ATOM      8  C10 UNL     1     144.541 164.540 166.392  0.00  0.00    +0.000 A 
ATOM      9  C11 UNL     1     145.900 164.555 166.699  0.00  0.00    +0.000 A 
ATOM     10  C12 UNL     1     146.526 163.499 167.287  0.00  0.00    +0.000 A 
ATOM     11  C13 UNL     1     147.895 163.585 167.567  0.00  0.00    +0.000 A 
BRANCH   3  12
ATOM     12  O1  UNL     1     148.616 166.926 166.334  0.00  0.00    +0.000 OA
ATOM     13  H5  UNL     1     149.616 166.990 166.416  0.00  0.00    +0.000 HD
ENDBRANCH   3  12
ENDBRANCH   1   2
BRANCH   1  19
ATOM     14  S1  UNL     1     151.664 164.465 164.797  0.00  0.00    +0.000 S 
ATOM     15  C1  UNL     1     151.441 163.238 166.155  0.00  0.00    +0.000 A 
ATOM     16  N1  UNL     1     152.092 162.271 165.668  0.00  0.00    +0.000 NA
ATOM     17  C2  UNL     1     152.699 162.210 164.571  0.00  0.00    +0.000 A 
ATOM     18  C3  UNL     1     152.687 163.353 163.721  0.00  0.00    +0.000 A 
ATOM     19  N2  UNL     1     150.716 163.487 167.331  0.00  0.00    +0.000 N 
ATOM     20  H3  UNL     1     150.662 162.716 168.030  0.00  0.00    +0.000 HD
ENDBRANCH   1  19
BRANCH   1  21
ATOM     21  C14 UNL     1     150.209 165.091 169.022  0.00  0.00    +0.000 A 
ATOM     22  C15 UNL     1     149.931 166.323 169.567  0.00  0.00    +0.000 A 
ATOM     23  C16 UNL     1     150.096 166.565 170.932  0.00  0.00    +0.000 A 
ATOM     24  C17 UNL     1     150.542 165.550 171.729  0.00  0.00    +0.000 A 
ATOM     25  C18 UNL     1     150.831 164.305 171.222  0.00  0.00    +0.000 A 
ATOM     26  C19 UNL     1     150.657 164.092 169.861  0.00  0.00    +0.000 A 
BRANCH  23  27
ATOM     27  O2  UNL     1     149.820 167.802 171.491  0.00  0.00    +0.000 OA
ATOM     28  H15 UNL     1     150.122 168.647 171.013  0.00  0.00    +0.000 HD
ENDBRANCH  23  27
ENDBRANCH   1  21
TORSDOF 5
ENDMDL
MODEL 6
REMARK VINA RESULT:      -6.1      2.629      6.126
REMARK  Name = ./3D_structures\o2_MMV642550_3D.pdb
REMARK  5 active torsions:
REMARK  status: ('A' for Active; 'I' for Inactive)
REMARK    1  A    between atoms: N2_6  and  C4_7
REMARK    2  A    between atoms: C4_7  and  C5_8
REMARK    3  A    between atoms: C4_7  and  C14_19
REMARK    4  A    between atoms: C6_9  and  O1_10
REMARK    5  A    between atoms: C16_21  and  O2_25
REMARK                            x       y       z     vdW  Elec       q    Type
REMARK                         _______ _______ _______ _____ _____    ______ ____
ROOT
ATOM      1  C4  UNL     1     150.203 165.571 167.522  0.00  0.00    +0.000 C 
ENDROOT
BRANCH   1   2
ATOM      2  C5  UNL     1     148.758 165.406 167.250  0.00  0.00    +0.000 A 
ATOM      3  C6  UNL     1     147.974 164.478 167.893  0.00  0.00    +0.000 A 
ATOM      4  C7  UNL     1     146.620 164.343 167.612  0.00  0.00    +0.000 A 
ATOM      5  N3  UNL     1     145.899 163.409 168.278  0.00  0.00    +0.000 NA
ATOM      6  C8  UNL     1     144.586 163.217 168.063  0.00  0.00    +0.000 A 
ATOM      7  C9  UNL     1     143.985 164.022 167.117  0.00  0.00    +0.000 A 
ATOM      8  C10 UNL     1     144.692 164.983 166.421  0.00  0.00    +0.000 A 
ATOM      9  C11 UNL     1     146.052 165.159 166.667  0.00  0.00    +0.000 A 
ATOM     10  C12 UNL     1     146.797 166.089 166.009  0.00  0.00    +0.000 A 
ATOM     11  C13 UNL     1     148.160 166.210 166.307  0.00  0.00    +0.000 A 
BRANCH   3  12
ATOM     12  O1  UNL     1     148.512 163.639 168.852  0.00  0.00    +0.000 OA
ATOM     13  H5  UNL     1     148.557 162.646 168.701  0.00  0.00    +0.000 HD
ENDBRANCH   3  12
ENDBRANCH   1   2
BRANCH   1  19
ATOM     14  S1  UNL     1     150.078 166.737 170.530  0.00  0.00    +0.000 S 
ATOM     15  C1  UNL     1     150.556 167.584 168.964  0.00  0.00    +0.000 A 
ATOM     16  N1  UNL     1     150.811 168.734 169.420  0.00  0.00    +0.000 NA
ATOM     17  C2  UNL     1     150.743 169.137 170.607  0.00  0.00    +0.000 A 
ATOM     18  C3  UNL     1     150.330 168.220 171.616  0.00  0.00    +0.000 A 
ATOM     19  N2  UNL     1     150.572 166.961 167.706  0.00  0.00    +0.000 N 
ATOM     20  H3  UNL     1     150.864 167.541 166.891  0.00  0.00    +0.000 HD
ENDBRANCH   1  19
BRANCH   1  21
ATOM     21  C14 UNL     1     150.962 165.023 166.371  0.00  0.00    +0.000 A 
ATOM     22  C15 UNL     1     151.144 163.682 166.125  0.00  0.00    +0.000 A 
ATOM     23  C16 UNL     1     151.872 163.240 165.019  0.00  0.00    +0.000 A 
ATOM     24  C17 UNL     1     152.408 164.169 164.174  0.00  0.00    +0.000 A 
ATOM     25  C18 UNL     1     152.250 165.517 164.386  0.00  0.00    +0.000 A 
ATOM     26  C19 UNL     1     151.520 165.929 165.493  0.00  0.00    +0.000 A 
BRANCH  23  27
ATOM     27  O2  UNL     1     152.061 161.892 164.763  0.00  0.00    +0.000 OA
ATOM     28  H15 UNL     1     151.353 161.223 165.052  0.00  0.00    +0.000 HD
ENDBRANCH  23  27
ENDBRANCH   1  21
TORSDOF 5
ENDMDL
MODEL 7
REMARK VINA RESULT:      -6.1      2.175      5.189
REMARK  Name = ./3D_structures\o2_MMV642550_3D.pdb
REMARK  5 active torsions:
REMARK  status: ('A' for Active; 'I' for Inactive)
REMARK    1  A    between atoms: N2_6  and  C4_7
REMARK    2  A    between atoms: C4_7  and  C5_8
REMARK    3  A    between atoms: C4_7  and  C14_19
REMARK    4  A    between atoms: C6_9  and  O1_10
REMARK    5  A    between atoms: C16_21  and  O2_25
REMARK                            x       y       z     vdW  Elec       q    Type
REMARK                         _______ _______ _______ _____ _____    ______ ____
ROOT
ATOM      1  C4  UNL     1     148.700 165.341 168.168  0.00  0.00    +0.000 C 
ENDROOT
BRANCH   1   2
ATOM      2  C5  UNL     1     149.617 164.498 167.371  0.00  0.00    +0.000 A 
ATOM      3  C6  UNL     1     150.416 164.996 166.370  0.00  0.00    +0.000 A 
ATOM      4  C7  UNL     1     151.264 164.176 165.634  0.00  0.00    +0.000 A 
ATOM      5  N3  UNL     1     152.027 164.724 164.659  0.00  0.00    +0.000 NA
ATOM      6  C8  UNL     1     152.871 163.999 163.904  0.00  0.00    +0.000 A 
ATOM      7  C9  UNL     1     152.933 162.646 164.163  0.00  0.00    +0.000 A 
ATOM      8  C10 UNL     1     152.168 162.056 165.151  0.00  0.00    +0.000 A 
ATOM      9  C11 UNL     1     151.303 162.835 165.917  0.00  0.00    +0.000 A 
ATOM     10  C12 UNL     1     150.525 162.305 166.901  0.00  0.00    +0.000 A 
ATOM     11  C13 UNL     1     149.678 163.148 167.631  0.00  0.00    +0.000 A 
BRANCH   3  12
ATOM     12  O1  UNL     1     150.404 166.342 166.057  0.00  0.00    +0.000 OA
ATOM     13  H5  UNL     1     149.834 166.987 166.578  0.00  0.00    +0.000 HD
ENDBRANCH   3  12
ENDBRANCH   1   2
BRANCH   1  19
ATOM     14  S1  UNL     1     150.950 166.796 169.970  0.00  0.00    +0.000 S 
ATOM     15  C1  UNL     1     149.664 165.571 170.464  0.00  0.00    +0.000 A 
ATOM     16  N1  UNL     1     149.931 165.477 171.695  0.00  0.00    +0.000 NA
ATOM     17  C2  UNL     1     150.825 166.067 172.350  0.00  0.00    +0.000 A 
ATOM     18  C3  UNL     1     151.682 166.976 171.665  0.00  0.00    +0.000 A 
ATOM     19  N2  UNL     1     148.732 165.007 169.579  0.00  0.00    +0.000 N 
ATOM     20  H3  UNL     1     148.049 164.327 169.975  0.00  0.00    +0.000 HD
ENDBRANCH   1  19
BRANCH   1  21
ATOM     21  C14 UNL     1     147.320 165.143 167.661  0.00  0.00    +0.000 A 
ATOM     22  C15 UNL     1     146.359 164.386 168.291  0.00  0.00    +0.000 A 
ATOM     23  C16 UNL     1     145.080 164.245 167.752  0.00  0.00    +0.000 A 
ATOM     24  C17 UNL     1     144.790 164.875 166.576  0.00  0.00    +0.000 A 
ATOM     25  C18 UNL     1     145.722 165.639 165.916  0.00  0.00    +0.000 A 
ATOM     26  C19 UNL     1     146.987 165.763 166.474  0.00  0.00    +0.000 A 
BRANCH  23  27
ATOM     27  O2  UNL     1     144.105 163.486 168.379  0.00  0.00    +0.000 OA
ATOM     28  H15 UNL     1     144.360 162.890 169.162  0.00  0.00    +0.000 HD
ENDBRANCH  23  27
ENDBRANCH   1  21
TORSDOF 5
ENDMDL
MODEL 8
REMARK VINA RESULT:      -6.1      7.764     11.114
REMARK  Name = ./3D_structures\o2_MMV642550_3D.pdb
REMARK  5 active torsions:
REMARK  status: ('A' for Active; 'I' for Inactive)
REMARK    1  A    between atoms: N2_6  and  C4_7
REMARK    2  A    between atoms: C4_7  and  C5_8
REMARK    3  A    between atoms: C4_7  and  C14_19
REMARK    4  A    between atoms: C6_9  and  O1_10
REMARK    5  A    between atoms: C16_21  and  O2_25
REMARK                            x       y       z     vdW  Elec       q    Type
REMARK                         _______ _______ _______ _____ _____    ______ ____
ROOT
ATOM      1  C4  UNL     1     156.861 158.066 166.225  0.00  0.00    +0.000 C 
ENDROOT
BRANCH   1   2
ATOM      2  C5  UNL     1     155.805 159.045 165.889  0.00  0.00    +0.000 A 
ATOM      3  C6  UNL     1     156.067 160.264 165.310  0.00  0.00    +0.000 A 
ATOM      4  C7  UNL     1     155.053 161.166 165.011  0.00  0.00    +0.000 A 
ATOM      5  N3  UNL     1     155.374 162.352 164.441  0.00  0.00    +0.000 NA
ATOM      6  C8  UNL     1     154.452 163.277 164.122  0.00  0.00    +0.000 A 
ATOM      7  C9  UNL     1     153.137 162.969 164.404  0.00  0.00    +0.000 A 
ATOM      8  C10 UNL     1     152.777 161.769 164.985  0.00  0.00    +0.000 A 
ATOM      9  C11 UNL     1     153.756 160.830 165.303  0.00  0.00    +0.000 A 
ATOM     10  C12 UNL     1     153.458 159.632 165.878  0.00  0.00    +0.000 A 
ATOM     11  C13 UNL     1     154.494 158.737 166.171  0.00  0.00    +0.000 A 
BRANCH   3  12
ATOM     12  O1  UNL     1     157.362 160.637 165.001  0.00  0.00    +0.000 OA
ATOM     13  H5  UNL     1     157.912 160.100 164.352  0.00  0.00    +0.000 HD
ENDBRANCH   3  12
ENDBRANCH   1   2
BRANCH   1  19
ATOM     14  S1  UNL     1     159.297 156.326 165.015  0.00  0.00    +0.000 S 
ATOM     15  C1  UNL     1     157.518 155.882 165.200  0.00  0.00    +0.000 A 
ATOM     16  N1  UNL     1     157.545 154.715 164.716  0.00  0.00    +0.000 NA
ATOM     17  C2  UNL     1     158.526 154.083 164.254  0.00  0.00    +0.000 A 
ATOM     18  C3  UNL     1     159.803 154.714 164.249  0.00  0.00    +0.000 A 
ATOM     19  N2  UNL     1     156.546 156.733 165.749  0.00  0.00    +0.000 N 
ATOM     20  H3  UNL     1     155.571 156.370 165.806  0.00  0.00    +0.000 HD
ENDBRANCH   1  19
BRANCH   1  21
ATOM     21  C14 UNL     1     157.010 158.024 167.701  0.00  0.00    +0.000 A 
ATOM     22  C15 UNL     1     156.272 157.217 168.536  0.00  0.00    +0.000 A 
ATOM     23  C16 UNL     1     156.468 157.232 169.917  0.00  0.00    +0.000 A 
ATOM     24  C17 UNL     1     157.414 158.070 170.436  0.00  0.00    +0.000 A 
ATOM     25  C18 UNL     1     158.171 158.891 169.636  0.00  0.00    +0.000 A 
ATOM     26  C19 UNL     1     157.955 158.856 168.265  0.00  0.00    +0.000 A 
BRANCH  23  27
ATOM     27  O2  UNL     1     155.731 156.424 170.767  0.00  0.00    +0.000 OA
ATOM     28  H15 UNL     1     155.241 155.617 170.391  0.00  0.00    +0.000 HD
ENDBRANCH  23  27
ENDBRANCH   1  21
TORSDOF 5
ENDMDL
MODEL 9
REMARK VINA RESULT:      -5.9      8.023     11.627
REMARK  Name = ./3D_structures\o2_MMV642550_3D.pdb
REMARK  5 active torsions:
REMARK  status: ('A' for Active; 'I' for Inactive)
REMARK    1  A    between atoms: N2_6  and  C4_7
REMARK    2  A    between atoms: C4_7  and  C5_8
REMARK    3  A    between atoms: C4_7  and  C14_19
REMARK    4  A    between atoms: C6_9  and  O1_10
REMARK    5  A    between atoms: C16_21  and  O2_25
REMARK                            x       y       z     vdW  Elec       q    Type
REMARK                         _______ _______ _______ _____ _____    ______ ____
ROOT
ATOM      1  C4  UNL     1     156.826 157.314 167.059  0.00  0.00    +0.000 C 
ENDROOT
BRANCH   1   2
ATOM      2  C5  UNL     1     155.953 158.386 166.534  0.00  0.00    +0.000 A 
ATOM      3  C6  UNL     1     156.435 159.584 166.065  0.00  0.00    +0.000 A 
ATOM      4  C7  UNL     1     155.587 160.576 165.583  0.00  0.00    +0.000 A 
ATOM      5  N3  UNL     1     156.121 161.737 165.134  0.00  0.00    +0.000 NA
ATOM      6  C8  UNL     1     155.370 162.743 164.654  0.00  0.00    +0.000 A 
ATOM      7  C9  UNL     1     154.005 162.547 164.635  0.00  0.00    +0.000 A 
ATOM      8  C10 UNL     1     153.429 161.375 165.086  0.00  0.00    +0.000 A 
ATOM      9  C11 UNL     1     154.235 160.349 165.577  0.00  0.00    +0.000 A 
ATOM     10  C12 UNL     1     153.721 159.175 166.035  0.00  0.00    +0.000 A 
ATOM     11  C13 UNL     1     154.591 158.189 166.516  0.00  0.00    +0.000 A 
BRANCH   3  12
ATOM     12  O1  UNL     1     157.792 159.847 166.055  0.00  0.00    +0.000 OA
ATOM     13  H5  UNL     1     158.195 160.498 166.705  0.00  0.00    +0.000 HD
ENDBRANCH   3  12
ENDBRANCH   1   2
BRANCH   1  19
ATOM     14  S1  UNL     1     155.883 157.831 170.103  0.00  0.00    +0.000 S 
ATOM     15  C1  UNL     1     157.536 158.087 169.329  0.00  0.00    +0.000 A 
ATOM     16  N1  UNL     1     158.170 158.519 170.333  0.00  0.00    +0.000 NA
ATOM     17  C2  UNL     1     157.752 158.704 171.501  0.00  0.00    +0.000 A 
ATOM     18  C3  UNL     1     156.390 158.405 171.793  0.00  0.00    +0.000 A 
ATOM     19  N2  UNL     1     157.824 157.820 167.981  0.00  0.00    +0.000 N 
ATOM     20  H3  UNL     1     158.798 158.000 167.657  0.00  0.00    +0.000 HD
ENDBRANCH   1  19
BRANCH   1  21
ATOM     21  C14 UNL     1     157.516 156.669 165.914  0.00  0.00    +0.000 A 
ATOM     22  C15 UNL     1     156.876 156.015 164.886  0.00  0.00    +0.000 A 
ATOM     23  C16 UNL     1     157.594 155.432 163.841  0.00  0.00    +0.000 A 
ATOM     24  C17 UNL     1     158.957 155.519 163.853  0.00  0.00    +0.000 A 
ATOM     25  C18 UNL     1     159.633 156.163 164.862  0.00  0.00    +0.000 A 
ATOM     26  C19 UNL     1     158.894 156.735 165.888  0.00  0.00    +0.000 A 
BRANCH  23  27
ATOM     27  O2  UNL     1     156.960 154.772 162.802  0.00  0.00    +0.000 OA
ATOM     28  H15 UNL     1     157.498 154.162 162.192  0.00  0.00    +0.000 HD
ENDBRANCH  23  27
ENDBRANCH   1  21
TORSDOF 5
ENDMDL
