MODEL 1
REMARK VINA RESULT:      -6.9      0.000      0.000
REMARK  Name = ./3D_structures\o31_MMV1633969_3D.pdb
REMARK  8 active torsions:
REMARK  status: ('A' for Active; 'I' for Inactive)
REMARK    1  A    between atoms: C3_6  and  C12_19
REMARK    2  A    between atoms: N2_10  and  C7_11
REMARK    3  A    between atoms: C8_13  and  C9_14
REMARK    4  A    between atoms: C9_14  and  O4_15
REMARK    5  A    between atoms: C10_16  and  O5_18
REMARK    6  A    between atoms: C15_22  and  C16_23
REMARK    7  A    between atoms: C16_23  and  C17_24
REMARK    8  A    between atoms: C17_24  and  C18_25
REMARK                            x       y       z     vdW  Elec       q    Type
REMARK                         _______ _______ _______ _____ _____    ______ ____
ROOT
ATOM      1  O1  UNL     1     147.147 163.389 169.850  0.00  0.00    +0.000 OA
ATOM      2  C1  UNL     1     148.082 163.125 169.051  0.00  0.00    +0.000 A 
ATOM      3  N1  UNL     1     148.892 162.101 169.379  0.00  0.00    +0.000 NA
ATOM      4  C2  UNL     1     149.926 161.746 168.577  0.00  0.00    +0.000 A 
ATOM      5  O2  UNL     1     150.852 160.827 168.631  0.00  0.00    +0.000 OA
ATOM      6  C3  UNL     1     151.665 160.849 167.614  0.00  0.00    +0.000 A 
ATOM      7  C4  UNL     1     151.233 161.892 166.800  0.00  0.00    +0.000 A 
ATOM      8  C5  UNL     1     150.135 162.455 167.415  0.00  0.00    +0.000 A 
ATOM      9  C6  UNL     1     149.273 163.490 167.135  0.00  0.00    +0.000 A 
ATOM     10  N2  UNL     1     148.247 163.846 167.927  0.00  0.00    +0.000 N 
ENDROOT
BRANCH   6  11
ATOM     11  C12 UNL     1     152.811 159.968 167.350  0.00  0.00    +0.000 A 
ATOM     12  C13 UNL     1     153.217 159.075 168.312  0.00  0.00    +0.000 A 
ATOM     13  C14 UNL     1     154.277 158.217 168.146  0.00  0.00    +0.000 A 
ATOM     14  C15 UNL     1     154.966 158.250 166.965  0.00  0.00    +0.000 A 
ATOM     15  C19 UNL     1     154.583 159.135 165.980  0.00  0.00    +0.000 A 
ATOM     16  C20 UNL     1     153.501 160.002 166.165  0.00  0.00    +0.000 A 
BRANCH  14  17
ATOM     17  C16 UNL     1     156.114 157.326 166.778  0.00  0.00    +0.000 C 
BRANCH  17  18
ATOM     18  C17 UNL     1     156.744 157.119 168.152  0.00  0.00    +0.000 C 
ATOM     19  C18 UNL     1     158.052 157.884 168.263  0.00  0.00    +0.000 C 
ENDBRANCH  17  18
ENDBRANCH  14  17
ENDBRANCH   6  11
BRANCH  10  20
ATOM     20  C7  UNL     1     147.344 164.923 167.643  0.00  0.00    +0.000 C 
ATOM     21  O3  UNL     1     146.135 164.508 167.097  0.00  0.00    +0.000 OA
ATOM     22  C8  UNL     1     145.589 165.717 166.673  0.00  0.00    +0.000 C 
ATOM     23  C10 UNL     1     146.703 166.249 165.797  0.00  0.00    +0.000 C 
ATOM     24  C11 UNL     1     147.921 165.934 166.675  0.00  0.00    +0.000 C 
BRANCH  23  25
ATOM     25  O5  UNL     1     146.591 167.618 165.581  0.00  0.00    +0.000 OA
ATOM     26  H11 UNL     1     145.625 167.809 165.444  0.00  0.00    +0.000 HD
ENDBRANCH  23  25
BRANCH  22  27
ATOM     27  C9  UNL     1     144.312 165.511 165.891  0.00  0.00    +0.000 C 
BRANCH  27  28
ATOM     28  O4  UNL     1     143.784 166.743 165.510  0.00  0.00    +0.000 OA
ATOM     29  H7  UNL     1     144.373 167.200 164.849  0.00  0.00    +0.000 HD
ENDBRANCH  27  28
ENDBRANCH  22  27
ENDBRANCH  10  20
TORSDOF 7
ENDMDL
MODEL 2
REMARK VINA RESULT:      -6.7      0.665      1.127
REMARK  Name = ./3D_structures\o31_MMV1633969_3D.pdb
REMARK  8 active torsions:
REMARK  status: ('A' for Active; 'I' for Inactive)
REMARK    1  A    between atoms: C3_6  and  C12_19
REMARK    2  A    between atoms: N2_10  and  C7_11
REMARK    3  A    between atoms: C8_13  and  C9_14
REMARK    4  A    between atoms: C9_14  and  O4_15
REMARK    5  A    between atoms: C10_16  and  O5_18
REMARK    6  A    between atoms: C15_22  and  C16_23
REMARK    7  A    between atoms: C16_23  and  C17_24
REMARK    8  A    between atoms: C17_24  and  C18_25
REMARK                            x       y       z     vdW  Elec       q    Type
REMARK                         _______ _______ _______ _____ _____    ______ ____
ROOT
ATOM      1  O1  UNL     1     148.410 164.593 170.376  0.00  0.00    +0.000 OA
ATOM      2  C1  UNL     1     148.982 163.931 169.472  0.00  0.00    +0.000 A 
ATOM      3  N1  UNL     1     149.941 163.071 169.864  0.00  0.00    +0.000 NA
ATOM      4  C2  UNL     1     150.611 162.315 168.960  0.00  0.00    +0.000 A 
ATOM      5  O2  UNL     1     151.561 161.423 169.036  0.00  0.00    +0.000 OA
ATOM      6  C3  UNL     1     151.912 160.937 167.881  0.00  0.00    +0.000 A 
ATOM      7  C4  UNL     1     151.112 161.574 166.937  0.00  0.00    +0.000 A 
ATOM      8  C5  UNL     1     150.292 162.444 167.626  0.00  0.00    +0.000 A 
ATOM      9  C6  UNL     1     149.304 163.338 167.288  0.00  0.00    +0.000 A 
ATOM     10  N2  UNL     1     148.637 164.090 168.182  0.00  0.00    +0.000 N 
ENDROOT
BRANCH   6  11
ATOM     11  C12 UNL     1     152.939 159.925 167.597  0.00  0.00    +0.000 A 
ATOM     12  C13 UNL     1     153.543 159.895 166.364  0.00  0.00    +0.000 A 
ATOM     13  C14 UNL     1     154.511 158.983 166.018  0.00  0.00    +0.000 A 
ATOM     14  C15 UNL     1     154.897 158.056 166.946  0.00  0.00    +0.000 A 
ATOM     15  C19 UNL     1     154.309 158.059 168.194  0.00  0.00    +0.000 A 
ATOM     16  C20 UNL     1     153.325 158.995 168.530  0.00  0.00    +0.000 A 
BRANCH  14  17
ATOM     17  C16 UNL     1     155.943 157.066 166.581  0.00  0.00    +0.000 C 
BRANCH  17  18
ATOM     18  C17 UNL     1     156.848 156.910 167.799  0.00  0.00    +0.000 C 
ATOM     19  C18 UNL     1     158.011 157.886 167.731  0.00  0.00    +0.000 C 
ENDBRANCH  17  18
ENDBRANCH  14  17
ENDBRANCH   6  11
BRANCH  10  20
ATOM     20  C7  UNL     1     147.605 165.025 167.840  0.00  0.00    +0.000 C 
ATOM     21  O3  UNL     1     146.431 164.424 167.401  0.00  0.00    +0.000 OA
ATOM     22  C8  UNL     1     145.733 165.516 166.889  0.00  0.00    +0.000 C 
ATOM     23  C10 UNL     1     146.742 166.072 165.907  0.00  0.00    +0.000 C 
ATOM     24  C11 UNL     1     148.022 165.988 166.748  0.00  0.00    +0.000 C 
BRANCH  23  25
ATOM     25  O5  UNL     1     146.465 167.391 165.563  0.00  0.00    +0.000 OA
ATOM     26  H11 UNL     1     147.330 167.881 165.582  0.00  0.00    +0.000 HD
ENDBRANCH  23  25
BRANCH  22  27
ATOM     27  C9  UNL     1     144.458 165.089 166.198  0.00  0.00    +0.000 C 
BRANCH  27  28
ATOM     28  O4  UNL     1     143.778 166.208 165.723  0.00  0.00    +0.000 OA
ATOM     29  H7  UNL     1     143.063 166.493 166.356  0.00  0.00    +0.000 HD
ENDBRANCH  27  28
ENDBRANCH  22  27
ENDBRANCH  10  20
TORSDOF 7
ENDMDL
MODEL 3
REMARK VINA RESULT:      -6.3      2.166      3.250
REMARK  Name = ./3D_structures\o31_MMV1633969_3D.pdb
REMARK  8 active torsions:
REMARK  status: ('A' for Active; 'I' for Inactive)
REMARK    1  A    between atoms: C3_6  and  C12_19
REMARK    2  A    between atoms: N2_10  and  C7_11
REMARK    3  A    between atoms: C8_13  and  C9_14
REMARK    4  A    between atoms: C9_14  and  O4_15
REMARK    5  A    between atoms: C10_16  and  O5_18
REMARK    6  A    between atoms: C15_22  and  C16_23
REMARK    7  A    between atoms: C16_23  and  C17_24
REMARK    8  A    between atoms: C17_24  and  C18_25
REMARK                            x       y       z     vdW  Elec       q    Type
REMARK                         _______ _______ _______ _____ _____    ______ ____
ROOT
ATOM      1  O1  UNL     1     150.477 165.970 165.097  0.00  0.00    +0.000 OA
ATOM      2  C1  UNL     1     150.831 164.850 165.548  0.00  0.00    +0.000 A 
ATOM      3  N1  UNL     1     151.915 164.284 164.986  0.00  0.00    +0.000 NA
ATOM      4  C2  UNL     1     152.369 163.077 165.408  0.00  0.00    +0.000 A 
ATOM      5  O2  UNL     1     153.361 162.302 165.067  0.00  0.00    +0.000 OA
ATOM      6  C3  UNL     1     153.424 161.201 165.760  0.00  0.00    +0.000 A 
ATOM      7  C4  UNL     1     152.360 161.251 166.655  0.00  0.00    +0.000 A 
ATOM      8  C5  UNL     1     151.697 162.439 166.428  0.00  0.00    +0.000 A 
ATOM      9  C6  UNL     1     150.597 163.069 166.961  0.00  0.00    +0.000 A 
ATOM     10  N2  UNL     1     150.143 164.264 166.545  0.00  0.00    +0.000 N 
ENDROOT
BRANCH   6  11
ATOM     11  C12 UNL     1     154.402 160.112 165.644  0.00  0.00    +0.000 A 
ATOM     12  C13 UNL     1     154.140 158.896 166.228  0.00  0.00    +0.000 A 
ATOM     13  C14 UNL     1     155.000 157.827 166.166  0.00  0.00    +0.000 A 
ATOM     14  C15 UNL     1     156.179 157.974 165.490  0.00  0.00    +0.000 A 
ATOM     15  C19 UNL     1     156.472 159.182 164.891  0.00  0.00    +0.000 A 
ATOM     16  C20 UNL     1     155.585 160.261 164.964  0.00  0.00    +0.000 A 
BRANCH  14  17
ATOM     17  C16 UNL     1     157.115 156.823 165.418  0.00  0.00    +0.000 C 
BRANCH  17  18
ATOM     18  C17 UNL     1     157.555 156.523 166.848  0.00  0.00    +0.000 C 
ATOM     19  C18 UNL     1     158.466 157.621 167.371  0.00  0.00    +0.000 C 
ENDBRANCH  17  18
ENDBRANCH  14  17
ENDBRANCH   6  11
BRANCH  10  20
ATOM     20  C7  UNL     1     148.998 164.929 167.095  0.00  0.00    +0.000 C 
ATOM     21  O3  UNL     1     148.840 164.729 168.462  0.00  0.00    +0.000 OA
ATOM     22  C8  UNL     1     147.555 165.224 168.670  0.00  0.00    +0.000 C 
ATOM     23  C10 UNL     1     146.763 164.416 167.663  0.00  0.00    +0.000 C 
ATOM     24  C11 UNL     1     147.699 164.493 166.450  0.00  0.00    +0.000 C 
BRANCH  23  25
ATOM     25  O5  UNL     1     145.534 164.999 167.375  0.00  0.00    +0.000 OA
ATOM     26  H11 UNL     1     144.884 164.255 167.261  0.00  0.00    +0.000 HD
ENDBRANCH  23  25
BRANCH  22  27
ATOM     27  C9  UNL     1     147.081 164.973 170.084  0.00  0.00    +0.000 C 
BRANCH  27  28
ATOM     28  O4  UNL     1     145.733 165.305 170.199  0.00  0.00    +0.000 OA
ATOM     29  H7  UNL     1     145.366 165.635 169.334  0.00  0.00    +0.000 HD
ENDBRANCH  27  28
ENDBRANCH  22  27
ENDBRANCH  10  20
TORSDOF 7
ENDMDL
MODEL 4
REMARK VINA RESULT:      -6.1      1.642      2.033
REMARK  Name = ./3D_structures\o31_MMV1633969_3D.pdb
REMARK  8 active torsions:
REMARK  status: ('A' for Active; 'I' for Inactive)
REMARK    1  A    between atoms: C3_6  and  C12_19
REMARK    2  A    between atoms: N2_10  and  C7_11
REMARK    3  A    between atoms: C8_13  and  C9_14
REMARK    4  A    between atoms: C9_14  and  O4_15
REMARK    5  A    between atoms: C10_16  and  O5_18
REMARK    6  A    between atoms: C15_22  and  C16_23
REMARK    7  A    between atoms: C16_23  and  C17_24
REMARK    8  A    between atoms: C17_24  and  C18_25
REMARK                            x       y       z     vdW  Elec       q    Type
REMARK                         _______ _______ _______ _____ _____    ______ ____
ROOT
ATOM      1  O1  UNL     1     148.725 165.575 170.704  0.00  0.00    +0.000 OA
ATOM      2  C1  UNL     1     149.250 164.629 170.063  0.00  0.00    +0.000 A 
ATOM      3  N1  UNL     1     150.188 163.907 170.704  0.00  0.00    +0.000 NA
ATOM      4  C2  UNL     1     150.808 162.869 170.091  0.00  0.00    +0.000 A 
ATOM      5  O2  UNL     1     151.728 162.013 170.445  0.00  0.00    +0.000 OA
ATOM      6  C3  UNL     1     152.032 161.160 169.510  0.00  0.00    +0.000 A 
ATOM      7  C4  UNL     1     151.230 161.483 168.420  0.00  0.00    +0.000 A 
ATOM      8  C5  UNL     1     150.460 162.564 168.793  0.00  0.00    +0.000 A 
ATOM      9  C6  UNL     1     149.495 163.338 168.193  0.00  0.00    +0.000 A 
ATOM     10  N2  UNL     1     148.878 164.369 168.796  0.00  0.00    +0.000 N 
ENDROOT
BRANCH   6  11
ATOM     11  C12 UNL     1     153.016 160.069 169.564  0.00  0.00    +0.000 A 
ATOM     12  C13 UNL     1     153.964 160.056 170.557  0.00  0.00    +0.000 A 
ATOM     13  C14 UNL     1     154.918 159.074 170.679  0.00  0.00    +0.000 A 
ATOM     14  C15 UNL     1     154.927 158.056 169.766  0.00  0.00    +0.000 A 
ATOM     15  C19 UNL     1     153.987 158.040 168.757  0.00  0.00    +0.000 A 
ATOM     16  C20 UNL     1     153.023 159.048 168.647  0.00  0.00    +0.000 A 
BRANCH  14  17
ATOM     17  C16 UNL     1     155.955 156.990 169.890  0.00  0.00    +0.000 C 
BRANCH  17  18
ATOM     18  C17 UNL     1     156.756 156.997 168.591  0.00  0.00    +0.000 C 
ATOM     19  C18 UNL     1     157.875 158.024 168.656  0.00  0.00    +0.000 C 
ENDBRANCH  17  18
ENDBRANCH  14  17
ENDBRANCH   6  11
BRANCH  10  20
ATOM     20  C7  UNL     1     147.870 165.181 168.178  0.00  0.00    +0.000 C 
ATOM     21  O3  UNL     1     146.648 164.536 168.029  0.00  0.00    +0.000 OA
ATOM     22  C8  UNL     1     145.971 165.413 167.184  0.00  0.00    +0.000 C 
ATOM     23  C10 UNL     1     146.948 165.519 166.031  0.00  0.00    +0.000 C 
ATOM     24  C11 UNL     1     148.268 165.662 166.799  0.00  0.00    +0.000 C 
BRANCH  23  25
ATOM     25  O5  UNL     1     146.709 166.641 165.245  0.00  0.00    +0.000 OA
ATOM     26  H11 UNL     1     147.307 167.360 165.584  0.00  0.00    +0.000 HD
ENDBRANCH  23  25
BRANCH  22  27
ATOM     27  C9  UNL     1     144.642 164.846 166.740  0.00  0.00    +0.000 C 
BRANCH  27  28
ATOM     28  O4  UNL     1     144.037 164.170 167.798  0.00  0.00    +0.000 OA
ATOM     29  H7  UNL     1     144.304 164.558 168.675  0.00  0.00    +0.000 HD
ENDBRANCH  27  28
ENDBRANCH  22  27
ENDBRANCH  10  20
TORSDOF 7
ENDMDL
MODEL 5
REMARK VINA RESULT:      -6.0      1.680      2.419
REMARK  Name = ./3D_structures\o31_MMV1633969_3D.pdb
REMARK  8 active torsions:
REMARK  status: ('A' for Active; 'I' for Inactive)
REMARK    1  A    between atoms: C3_6  and  C12_19
REMARK    2  A    between atoms: N2_10  and  C7_11
REMARK    3  A    between atoms: C8_13  and  C9_14
REMARK    4  A    between atoms: C9_14  and  O4_15
REMARK    5  A    between atoms: C10_16  and  O5_18
REMARK    6  A    between atoms: C15_22  and  C16_23
REMARK    7  A    between atoms: C16_23  and  C17_24
REMARK    8  A    between atoms: C17_24  and  C18_25
REMARK                            x       y       z     vdW  Elec       q    Type
REMARK                         _______ _______ _______ _____ _____    ______ ____
ROOT
ATOM      1  O1  UNL     1     149.010 162.441 169.720  0.00  0.00    +0.000 OA
ATOM      2  C1  UNL     1     149.822 162.242 168.779  0.00  0.00    +0.000 A 
ATOM      3  N1  UNL     1     150.724 161.259 168.953  0.00  0.00    +0.000 NA
ATOM      4  C2  UNL     1     151.638 160.973 167.993  0.00  0.00    +0.000 A 
ATOM      5  O2  UNL     1     152.607 160.106 167.880  0.00  0.00    +0.000 OA
ATOM      6  C3  UNL     1     153.249 160.188 166.749  0.00  0.00    +0.000 A 
ATOM      7  C4  UNL     1     152.642 161.219 166.038  0.00  0.00    +0.000 A 
ATOM      8  C5  UNL     1     151.625 161.711 166.829  0.00  0.00    +0.000 A 
ATOM      9  C6  UNL     1     150.678 162.701 166.710  0.00  0.00    +0.000 A 
ATOM     10  N2  UNL     1     149.771 162.988 167.660  0.00  0.00    +0.000 N 
ENDROOT
BRANCH   6  11
ATOM     11  C12 UNL     1     154.384 159.376 166.291  0.00  0.00    +0.000 A 
ATOM     12  C13 UNL     1     155.279 159.903 165.392  0.00  0.00    +0.000 A 
ATOM     13  C14 UNL     1     156.366 159.212 164.914  0.00  0.00    +0.000 A 
ATOM     14  C15 UNL     1     156.572 157.933 165.352  0.00  0.00    +0.000 A 
ATOM     15  C19 UNL     1     155.691 157.375 166.255  0.00  0.00    +0.000 A 
ATOM     16  C20 UNL     1     154.589 158.093 166.732  0.00  0.00    +0.000 A 
BRANCH  14  17
ATOM     17  C16 UNL     1     157.744 157.179 164.840  0.00  0.00    +0.000 C 
BRANCH  17  18
ATOM     18  C17 UNL     1     157.384 155.698 164.917  0.00  0.00    +0.000 C 
ATOM     19  C18 UNL     1     158.639 154.840 164.919  0.00  0.00    +0.000 C 
ENDBRANCH  17  18
ENDBRANCH  14  17
ENDBRANCH   6  11
BRANCH  10  20
ATOM     20  C7  UNL     1     148.780 164.018 167.546  0.00  0.00    +0.000 C 
ATOM     21  O3  UNL     1     147.666 163.640 166.806  0.00  0.00    +0.000 OA
ATOM     22  C8  UNL     1     147.025 164.863 166.620  0.00  0.00    +0.000 C 
ATOM     23  C10 UNL     1     148.137 165.683 166.000  0.00  0.00    +0.000 C 
ATOM     24  C11 UNL     1     149.314 165.277 166.895  0.00  0.00    +0.000 C 
BRANCH  23  25
ATOM     25  O5  UNL     1     147.893 167.049 166.094  0.00  0.00    +0.000 OA
ATOM     26  H11 UNL     1     147.169 167.166 166.766  0.00  0.00    +0.000 HD
ENDBRANCH  23  25
BRANCH  22  27
ATOM     27  C9  UNL     1     145.839 164.737 165.693  0.00  0.00    +0.000 C 
BRANCH  27  28
ATOM     28  O4  UNL     1     145.628 163.398 165.370  0.00  0.00    +0.000 OA
ATOM     29  H7  UNL     1     145.930 162.797 166.105  0.00  0.00    +0.000 HD
ENDBRANCH  27  28
ENDBRANCH  22  27
ENDBRANCH  10  20
TORSDOF 7
ENDMDL
MODEL 6
REMARK VINA RESULT:      -5.8      5.923      9.969
REMARK  Name = ./3D_structures\o31_MMV1633969_3D.pdb
REMARK  8 active torsions:
REMARK  status: ('A' for Active; 'I' for Inactive)
REMARK    1  A    between atoms: C3_6  and  C12_19
REMARK    2  A    between atoms: N2_10  and  C7_11
REMARK    3  A    between atoms: C8_13  and  C9_14
REMARK    4  A    between atoms: C9_14  and  O4_15
REMARK    5  A    between atoms: C10_16  and  O5_18
REMARK    6  A    between atoms: C15_22  and  C16_23
REMARK    7  A    between atoms: C16_23  and  C17_24
REMARK    8  A    between atoms: C17_24  and  C18_25
REMARK                            x       y       z     vdW  Elec       q    Type
REMARK                         _______ _______ _______ _____ _____    ______ ____
ROOT
ATOM      1  O1  UNL     1     155.360 156.834 165.668  0.00  0.00    +0.000 OA
ATOM      2  C1  UNL     1     156.266 157.395 166.337  0.00  0.00    +0.000 A 
ATOM      3  N1  UNL     1     157.536 157.167 165.952  0.00  0.00    +0.000 NA
ATOM      4  C2  UNL     1     158.577 157.731 166.614  0.00  0.00    +0.000 A 
ATOM      5  O2  UNL     1     159.875 157.696 166.479  0.00  0.00    +0.000 OA
ATOM      6  C3  UNL     1     160.509 158.409 167.364  0.00  0.00    +0.000 A 
ATOM      7  C4  UNL     1     159.529 158.977 168.173  0.00  0.00    +0.000 A 
ATOM      8  C5  UNL     1     158.310 158.544 167.693  0.00  0.00    +0.000 A 
ATOM      9  C6  UNL     1     156.993 158.739 168.037  0.00  0.00    +0.000 A 
ATOM     10  N2  UNL     1     155.958 158.182 167.384  0.00  0.00    +0.000 N 
ENDROOT
BRANCH   6  11
ATOM     11  C12 UNL     1     161.959 158.596 167.508  0.00  0.00    +0.000 A 
ATOM     12  C13 UNL     1     162.775 157.500 167.651  0.00  0.00    +0.000 A 
ATOM     13  C14 UNL     1     164.139 157.587 167.790  0.00  0.00    +0.000 A 
ATOM     14  C15 UNL     1     164.719 158.825 167.786  0.00  0.00    +0.000 A 
ATOM     15  C19 UNL     1     163.927 159.945 167.644  0.00  0.00    +0.000 A 
ATOM     16  C20 UNL     1     162.539 159.839 167.503  0.00  0.00    +0.000 A 
BRANCH  14  17
ATOM     17  C16 UNL     1     166.194 158.928 167.936  0.00  0.00    +0.000 C 
BRANCH  17  18
ATOM     18  C17 UNL     1     166.528 158.451 169.347  0.00  0.00    +0.000 C 
ATOM     19  C18 UNL     1     166.308 159.567 170.356  0.00  0.00    +0.000 C 
ENDBRANCH  17  18
ENDBRANCH  14  17
ENDBRANCH   6  11
BRANCH  10  20
ATOM     20  C7  UNL     1     154.582 158.379 167.735  0.00  0.00    +0.000 C 
ATOM     21  O3  UNL     1     154.320 159.628 168.287  0.00  0.00    +0.000 OA
ATOM     22  C8  UNL     1     153.028 159.451 168.776  0.00  0.00    +0.000 C 
ATOM     23  C10 UNL     1     153.211 158.230 169.652  0.00  0.00    +0.000 C 
ATOM     24  C11 UNL     1     154.079 157.359 168.735  0.00  0.00    +0.000 C 
BRANCH  23  25
ATOM     25  O5  UNL     1     152.002 157.601 169.932  0.00  0.00    +0.000 OA
ATOM     26  H11 UNL     1     152.101 157.175 170.825  0.00  0.00    +0.000 HD
ENDBRANCH  23  25
BRANCH  22  27
ATOM     27  C9  UNL     1     152.565 160.648 169.576  0.00  0.00    +0.000 C 
BRANCH  27  28
ATOM     28  O4  UNL     1     151.375 160.348 170.235  0.00  0.00    +0.000 OA
ATOM     29  H7  UNL     1     150.693 159.986 169.605  0.00  0.00    +0.000 HD
ENDBRANCH  27  28
ENDBRANCH  22  27
ENDBRANCH  10  20
TORSDOF 7
ENDMDL
MODEL 7
REMARK VINA RESULT:      -5.8      8.452     12.083
REMARK  Name = ./3D_structures\o31_MMV1633969_3D.pdb
REMARK  8 active torsions:
REMARK  status: ('A' for Active; 'I' for Inactive)
REMARK    1  A    between atoms: C3_6  and  C12_19
REMARK    2  A    between atoms: N2_10  and  C7_11
REMARK    3  A    between atoms: C8_13  and  C9_14
REMARK    4  A    between atoms: C9_14  and  O4_15
REMARK    5  A    between atoms: C10_16  and  O5_18
REMARK    6  A    between atoms: C15_22  and  C16_23
REMARK    7  A    between atoms: C16_23  and  C17_24
REMARK    8  A    between atoms: C17_24  and  C18_25
REMARK                            x       y       z     vdW  Elec       q    Type
REMARK                         _______ _______ _______ _____ _____    ______ ____
ROOT
ATOM      1  O1  UNL     1     158.176 157.752 162.970  0.00  0.00    +0.000 OA
ATOM      2  C1  UNL     1     157.952 157.424 164.164  0.00  0.00    +0.000 A 
ATOM      3  N1  UNL     1     157.554 158.402 164.998  0.00  0.00    +0.000 NA
ATOM      4  C2  UNL     1     157.289 158.141 166.302  0.00  0.00    +0.000 A 
ATOM      5  O2  UNL     1     156.899 158.861 167.319  0.00  0.00    +0.000 OA
ATOM      6  C3  UNL     1     156.768 158.177 168.420  0.00  0.00    +0.000 A 
ATOM      7  C4  UNL     1     157.109 156.866 168.100  0.00  0.00    +0.000 A 
ATOM      8  C5  UNL     1     157.438 156.851 166.761  0.00  0.00    +0.000 A 
ATOM      9  C6  UNL     1     157.847 155.895 165.860  0.00  0.00    +0.000 A 
ATOM     10  N2  UNL     1     158.111 156.150 164.566  0.00  0.00    +0.000 N 
ENDROOT
BRANCH   6  11
ATOM     11  C12 UNL     1     156.351 158.661 169.743  0.00  0.00    +0.000 A 
ATOM     12  C13 UNL     1     157.118 158.374 170.846  0.00  0.00    +0.000 A 
ATOM     13  C14 UNL     1     156.800 158.788 172.116  0.00  0.00    +0.000 A 
ATOM     14  C15 UNL     1     155.662 159.525 172.298  0.00  0.00    +0.000 A 
ATOM     15  C19 UNL     1     154.870 159.830 171.211  0.00  0.00    +0.000 A 
ATOM     16  C20 UNL     1     155.209 159.401 169.923  0.00  0.00    +0.000 A 
BRANCH  14  17
ATOM     17  C16 UNL     1     155.310 159.976 173.669  0.00  0.00    +0.000 C 
BRANCH  17  18
ATOM     18  C17 UNL     1     155.371 161.501 173.660  0.00  0.00    +0.000 C 
ATOM     19  C18 UNL     1     156.802 161.982 173.830  0.00  0.00    +0.000 C 
ENDBRANCH  17  18
ENDBRANCH  14  17
ENDBRANCH   6  11
BRANCH  10  20
ATOM     20  C7  UNL     1     158.538 155.161 163.620  0.00  0.00    +0.000 C 
ATOM     21  O3  UNL     1     157.503 154.374 163.129  0.00  0.00    +0.000 OA
ATOM     22  C8  UNL     1     158.205 153.361 162.481  0.00  0.00    +0.000 C 
ATOM     23  C10 UNL     1     159.102 152.868 163.597  0.00  0.00    +0.000 C 
ATOM     24  C11 UNL     1     159.563 154.204 164.192  0.00  0.00    +0.000 C 
BRANCH  23  25
ATOM     25  O5  UNL     1     160.186 152.143 163.114  0.00  0.00    +0.000 OA
ATOM     26  H11 UNL     1     159.880 151.688 162.284  0.00  0.00    +0.000 HD
ENDBRANCH  23  25
BRANCH  22  27
ATOM     27  C9  UNL     1     157.282 152.271 161.984  0.00  0.00    +0.000 C 
BRANCH  27  28
ATOM     28  O4  UNL     1     156.078 152.313 162.684  0.00  0.00    +0.000 OA
ATOM     29  H7  UNL     1     155.749 151.396 162.894  0.00  0.00    +0.000 HD
ENDBRANCH  27  28
ENDBRANCH  22  27
ENDBRANCH  10  20
TORSDOF 7
ENDMDL
MODEL 8
REMARK VINA RESULT:      -5.6      2.247      2.966
REMARK  Name = ./3D_structures\o31_MMV1633969_3D.pdb
REMARK  8 active torsions:
REMARK  status: ('A' for Active; 'I' for Inactive)
REMARK    1  A    between atoms: C3_6  and  C12_19
REMARK    2  A    between atoms: N2_10  and  C7_11
REMARK    3  A    between atoms: C8_13  and  C9_14
REMARK    4  A    between atoms: C9_14  and  O4_15
REMARK    5  A    between atoms: C10_16  and  O5_18
REMARK    6  A    between atoms: C15_22  and  C16_23
REMARK    7  A    between atoms: C16_23  and  C17_24
REMARK    8  A    between atoms: C17_24  and  C18_25
REMARK                            x       y       z     vdW  Elec       q    Type
REMARK                         _______ _______ _______ _____ _____    ______ ____
ROOT
ATOM      1  O1  UNL     1     147.736 164.288 167.403  0.00  0.00    +0.000 OA
ATOM      2  C1  UNL     1     148.233 163.174 167.712  0.00  0.00    +0.000 A 
ATOM      3  N1  UNL     1     149.522 163.170 168.100  0.00  0.00    +0.000 NA
ATOM      4  C2  UNL     1     150.140 162.016 168.451  0.00  0.00    +0.000 A 
ATOM      5  O2  UNL     1     151.342 161.707 168.857  0.00  0.00    +0.000 OA
ATOM      6  C3  UNL     1     151.503 160.436 169.087  0.00  0.00    +0.000 A 
ATOM      7  C4  UNL     1     150.279 159.837 168.804  0.00  0.00    +0.000 A 
ATOM      8  C5  UNL     1     149.423 160.841 168.402  0.00  0.00    +0.000 A 
ATOM      9  C6  UNL     1     148.110 160.910 167.997  0.00  0.00    +0.000 A 
ATOM     10  N2  UNL     1     147.493 162.052 167.648  0.00  0.00    +0.000 N 
ENDROOT
BRANCH   6  11
ATOM     11  C12 UNL     1     152.714 159.745 169.550  0.00  0.00    +0.000 A 
ATOM     12  C13 UNL     1     153.073 158.546 168.982  0.00  0.00    +0.000 A 
ATOM     13  C14 UNL     1     154.189 157.837 169.355  0.00  0.00    +0.000 A 
ATOM     14  C15 UNL     1     154.986 158.346 170.343  0.00  0.00    +0.000 A 
ATOM     15  C19 UNL     1     154.654 159.547 170.933  0.00  0.00    +0.000 A 
ATOM     16  C20 UNL     1     153.514 160.257 170.540  0.00  0.00    +0.000 A 
BRANCH  14  17
ATOM     17  C16 UNL     1     156.195 157.585 170.753  0.00  0.00    +0.000 C 
BRANCH  17  18
ATOM     18  C17 UNL     1     157.285 158.612 171.045  0.00  0.00    +0.000 C 
ATOM     19  C18 UNL     1     158.414 158.498 170.034  0.00  0.00    +0.000 C 
ENDBRANCH  17  18
ENDBRANCH  14  17
ENDBRANCH   6  11
BRANCH  10  20
ATOM     20  C7  UNL     1     146.126 162.134 167.225  0.00  0.00    +0.000 C 
ATOM     21  O3  UNL     1     145.914 163.042 166.193  0.00  0.00    +0.000 OA
ATOM     22  C8  UNL     1     144.524 163.127 166.176  0.00  0.00    +0.000 C 
ATOM     23  C10 UNL     1     144.236 163.495 167.616  0.00  0.00    +0.000 C 
ATOM     24  C11 UNL     1     145.187 162.536 168.343  0.00  0.00    +0.000 C 
BRANCH  23  25
ATOM     25  O5  UNL     1     142.915 163.239 167.966  0.00  0.00    +0.000 OA
ATOM     26  H11 UNL     1     142.898 162.335 168.382  0.00  0.00    +0.000 HD
ENDBRANCH  23  25
BRANCH  22  27
ATOM     27  C9  UNL     1     144.042 164.193 165.219  0.00  0.00    +0.000 C 
BRANCH  27  28
ATOM     28  O4  UNL     1     143.280 165.137 165.904  0.00  0.00    +0.000 OA
ATOM     29  H7  UNL     1     142.898 164.755 166.742  0.00  0.00    +0.000 HD
ENDBRANCH  27  28
ENDBRANCH  22  27
ENDBRANCH  10  20
TORSDOF 7
ENDMDL
MODEL 9
REMARK VINA RESULT:      -5.5      1.724      2.524
REMARK  Name = ./3D_structures\o31_MMV1633969_3D.pdb
REMARK  8 active torsions:
REMARK  status: ('A' for Active; 'I' for Inactive)
REMARK    1  A    between atoms: C3_6  and  C12_19
REMARK    2  A    between atoms: N2_10  and  C7_11
REMARK    3  A    between atoms: C8_13  and  C9_14
REMARK    4  A    between atoms: C9_14  and  O4_15
REMARK    5  A    between atoms: C10_16  and  O5_18
REMARK    6  A    between atoms: C15_22  and  C16_23
REMARK    7  A    between atoms: C16_23  and  C17_24
REMARK    8  A    between atoms: C17_24  and  C18_25
REMARK                            x       y       z     vdW  Elec       q    Type
REMARK                         _______ _______ _______ _____ _____    ______ ____
ROOT
ATOM      1  O1  UNL     1     149.065 164.277 166.945  0.00  0.00    +0.000 OA
ATOM      2  C1  UNL     1     149.593 163.218 167.372  0.00  0.00    +0.000 A 
ATOM      3  N1  UNL     1     150.781 162.874 166.841  0.00  0.00    +0.000 NA
ATOM      4  C2  UNL     1     151.424 161.749 167.241  0.00  0.00    +0.000 A 
ATOM      5  O2  UNL     1     152.552 161.175 166.919  0.00  0.00    +0.000 OA
ATOM      6  C3  UNL     1     152.780 160.074 167.575  0.00  0.00    +0.000 A 
ATOM      7  C4  UNL     1     151.689 159.898 168.421  0.00  0.00    +0.000 A 
ATOM      8  C5  UNL     1     150.836 160.960 168.205  0.00  0.00    +0.000 A 
ATOM      9  C6  UNL     1     149.622 161.364 168.709  0.00  0.00    +0.000 A 
ATOM     10  N2  UNL     1     148.981 162.478 168.315  0.00  0.00    +0.000 N 
ENDROOT
BRANCH   6  11
ATOM     11  C12 UNL     1     153.940 159.178 167.466  0.00  0.00    +0.000 A 
ATOM     12  C13 UNL     1     154.601 158.781 168.603  0.00  0.00    +0.000 A 
ATOM     13  C14 UNL     1     155.692 157.945 168.589  0.00  0.00    +0.000 A 
ATOM     14  C15 UNL     1     156.147 157.484 167.385  0.00  0.00    +0.000 A 
ATOM     15  C19 UNL     1     155.504 157.865 166.225  0.00  0.00    +0.000 A 
ATOM     16  C20 UNL     1     154.394 158.716 166.257  0.00  0.00    +0.000 A 
BRANCH  14  17
ATOM     17  C16 UNL     1     157.326 156.581 167.361  0.00  0.00    +0.000 C 
BRANCH  17  18
ATOM     18  C17 UNL     1     158.014 156.789 166.014  0.00  0.00    +0.000 C 
ATOM     19  C18 UNL     1     158.262 155.456 165.327  0.00  0.00    +0.000 C 
ENDBRANCH  17  18
ENDBRANCH  14  17
ENDBRANCH   6  11
BRANCH  10  20
ATOM     20  C7  UNL     1     147.715 162.907 168.834  0.00  0.00    +0.000 C 
ATOM     21  O3  UNL     1     146.708 162.958 167.877  0.00  0.00    +0.000 OA
ATOM     22  C8  UNL     1     145.708 163.647 168.560  0.00  0.00    +0.000 C 
ATOM     23  C10 UNL     1     146.451 164.897 168.982  0.00  0.00    +0.000 C 
ATOM     24  C11 UNL     1     147.773 164.285 169.461  0.00  0.00    +0.000 C 
BRANCH  23  25
ATOM     25  O5  UNL     1     145.809 165.561 170.021  0.00  0.00    +0.000 OA
ATOM     26  H11 UNL     1     146.512 166.052 170.526  0.00  0.00    +0.000 HD
ENDBRANCH  23  25
BRANCH  22  27
ATOM     27  C9  UNL     1     144.538 163.970 167.659  0.00  0.00    +0.000 C 
BRANCH  27  28
ATOM     28  O4  UNL     1     144.763 165.178 167.002  0.00  0.00    +0.000 OA
ATOM     29  H7  UNL     1     145.361 165.772 167.532  0.00  0.00    +0.000 HD
ENDBRANCH  27  28
ENDBRANCH  22  27
ENDBRANCH  10  20
TORSDOF 7
ENDMDL
