MODEL 1
REMARK VINA RESULT:      -6.6      0.000      0.000
REMARK  Name = ./3D_structures\o32_MMV596723_3D.pdb
REMARK  3 active torsions:
REMARK  status: ('A' for Active; 'I' for Inactive)
REMARK    1  A    between atoms: C1_2  and  C12_15
REMARK    2  A    between atoms: N2_6  and  C4_7
REMARK    3  A    between atoms: C14_17  and  O2_25
REMARK                            x       y       z     vdW  Elec       q    Type
REMARK                         _______ _______ _______ _____ _____    ______ ____
ROOT
ATOM      1  O1  UNL     1     152.738 158.394 169.341  0.00  0.00    +0.000 OA
ATOM      2  C1  UNL     1     153.539 158.922 168.528  0.00  0.00    +0.000 C 
ATOM      3  N1  UNL     1     153.187 160.188 167.985  0.00  0.00    +0.000 N 
ATOM      4  C2  UNL     1     151.951 160.867 168.344  0.00  0.00    +0.000 C 
ATOM      5  C3  UNL     1     151.222 161.280 167.060  0.00  0.00    +0.000 C 
ATOM      6  N2  UNL     1     152.079 162.088 166.264  0.00  0.00    +0.000 N 
ATOM      7  C10 UNL     1     153.387 161.540 165.919  0.00  0.00    +0.000 C 
ATOM      8  C11 UNL     1     154.065 160.843 167.049  0.00  0.00    +0.000 C 
ENDROOT
BRANCH   2   9
ATOM      9  C12 UNL     1     154.780 158.286 168.142  0.00  0.00    +0.000 A 
ATOM     10  C13 UNL     1     154.846 157.551 166.995  0.00  0.00    +0.000 A 
ATOM     11  C14 UNL     1     156.037 156.960 166.656  0.00  0.00    +0.000 A 
ATOM     12  N3  UNL     1     157.130 157.095 167.431  0.00  0.00    +0.000 NA
ATOM     13  C15 UNL     1     157.051 157.824 168.558  0.00  0.00    +0.000 A 
ATOM     14  C16 UNL     1     158.193 157.937 169.322  0.00  0.00    +0.000 A 
ATOM     15  C17 UNL     1     158.171 158.671 170.487  0.00  0.00    +0.000 A 
ATOM     16  C18 UNL     1     156.998 159.279 170.865  0.00  0.00    +0.000 A 
ATOM     17  C19 UNL     1     155.834 159.194 170.134  0.00  0.00    +0.000 A 
ATOM     18  C20 UNL     1     155.887 158.455 168.976  0.00  0.00    +0.000 A 
BRANCH  11  19
ATOM     19  O2  UNL     1     156.081 156.212 165.479  0.00  0.00    +0.000 OA
ATOM     20  H19 UNL     1     156.950 155.685 165.338  0.00  0.00    +0.000 HD
ENDBRANCH  11  19
ENDBRANCH   2   9
BRANCH   6  21
ATOM     21  C4  UNL     1     151.712 163.363 165.830  0.00  0.00    +0.000 A 
ATOM     22  C5  UNL     1     152.404 163.970 164.812  0.00  0.00    +0.000 A 
ATOM     23  C6  UNL     1     152.086 165.235 164.365  0.00  0.00    +0.000 A 
ATOM     24  C7  UNL     1     151.030 165.896 164.979  0.00  0.00    +0.000 A 
ATOM     25  C8  UNL     1     150.316 165.329 165.995  0.00  0.00    +0.000 A 
ATOM     26  C9  UNL     1     150.676 164.043 166.414  0.00  0.00    +0.000 A 
ENDBRANCH   6  21
TORSDOF 3
ENDMDL
MODEL 2
REMARK VINA RESULT:      -6.4      3.868      8.680
REMARK  Name = ./3D_structures\o32_MMV596723_3D.pdb
REMARK  3 active torsions:
REMARK  status: ('A' for Active; 'I' for Inactive)
REMARK    1  A    between atoms: C1_2  and  C12_15
REMARK    2  A    between atoms: N2_6  and  C4_7
REMARK    3  A    between atoms: C14_17  and  O2_25
REMARK                            x       y       z     vdW  Elec       q    Type
REMARK                         _______ _______ _______ _____ _____    ______ ____
ROOT
ATOM      1  O1  UNL     1     150.135 164.848 166.160  0.00  0.00    +0.000 OA
ATOM      2  C1  UNL     1     150.278 164.264 167.264  0.00  0.00    +0.000 C 
ATOM      3  N1  UNL     1     151.215 163.197 167.328  0.00  0.00    +0.000 N 
ATOM      4  C2  UNL     1     151.992 162.779 166.171  0.00  0.00    +0.000 C 
ATOM      5  C3  UNL     1     151.852 161.262 166.000  0.00  0.00    +0.000 C 
ATOM      6  N2  UNL     1     152.257 160.609 167.196  0.00  0.00    +0.000 N 
ATOM      7  C10 UNL     1     151.605 161.016 168.436  0.00  0.00    +0.000 C 
ATOM      8  C11 UNL     1     151.423 162.489 168.566  0.00  0.00    +0.000 C 
ENDROOT
BRANCH   2   9
ATOM      9  C12 UNL     1     149.529 164.643 168.442  0.00  0.00    +0.000 A 
ATOM     10  C13 UNL     1     150.027 165.579 169.300  0.00  0.00    +0.000 A 
ATOM     11  C14 UNL     1     149.294 165.918 170.409  0.00  0.00    +0.000 A 
ATOM     12  N3  UNL     1     148.101 165.345 170.660  0.00  0.00    +0.000 NA
ATOM     13  C15 UNL     1     147.622 164.424 169.805  0.00  0.00    +0.000 A 
ATOM     14  C16 UNL     1     146.398 163.862 170.100  0.00  0.00    +0.000 A 
ATOM     15  C17 UNL     1     145.857 162.913 169.261  0.00  0.00    +0.000 A 
ATOM     16  C18 UNL     1     146.558 162.544 168.138  0.00  0.00    +0.000 A 
ATOM     17  C19 UNL     1     147.784 163.078 167.805  0.00  0.00    +0.000 A 
ATOM     18  C20 UNL     1     148.297 164.022 168.660  0.00  0.00    +0.000 A 
BRANCH  11  19
ATOM     19  O2  UNL     1     149.823 166.877 171.272  0.00  0.00    +0.000 OA
ATOM     20  H19 UNL     1     150.218 167.702 170.807  0.00  0.00    +0.000 HD
ENDBRANCH  11  19
ENDBRANCH   2   9
BRANCH   6  21
ATOM     21  C4  UNL     1     153.248 159.625 167.210  0.00  0.00    +0.000 A 
ATOM     22  C5  UNL     1     153.987 159.376 166.081  0.00  0.00    +0.000 A 
ATOM     23  C6  UNL     1     154.963 158.401 166.048  0.00  0.00    +0.000 A 
ATOM     24  C7  UNL     1     155.187 157.665 167.203  0.00  0.00    +0.000 A 
ATOM     25  C8  UNL     1     154.475 157.880 168.348  0.00  0.00    +0.000 A 
ATOM     26  C9  UNL     1     153.494 158.880 168.333  0.00  0.00    +0.000 A 
ENDBRANCH   6  21
TORSDOF 3
ENDMDL
MODEL 3
REMARK VINA RESULT:      -6.3     14.731     16.870
REMARK  Name = ./3D_structures\o32_MMV596723_3D.pdb
REMARK  3 active torsions:
REMARK  status: ('A' for Active; 'I' for Inactive)
REMARK    1  A    between atoms: C1_2  and  C12_15
REMARK    2  A    between atoms: N2_6  and  C4_7
REMARK    3  A    between atoms: C14_17  and  O2_25
REMARK                            x       y       z     vdW  Elec       q    Type
REMARK                         _______ _______ _______ _____ _____    ______ ____
ROOT
ATOM      1  O1  UNL     1     160.442 148.225 169.803  0.00  0.00    +0.000 OA
ATOM      2  C1  UNL     1     161.426 147.460 169.640  0.00  0.00    +0.000 C 
ATOM      3  N1  UNL     1     162.657 148.047 169.239  0.00  0.00    +0.000 N 
ATOM      4  C2  UNL     1     162.796 149.479 169.020  0.00  0.00    +0.000 C 
ATOM      5  C3  UNL     1     163.438 149.711 167.646  0.00  0.00    +0.000 C 
ATOM      6  N2  UNL     1     164.680 149.024 167.580  0.00  0.00    +0.000 N 
ATOM      7  C10 UNL     1     164.673 147.594 167.872  0.00  0.00    +0.000 C 
ATOM      8  C11 UNL     1     163.821 147.222 169.037  0.00  0.00    +0.000 C 
ENDROOT
BRANCH   2   9
ATOM      9  C12 UNL     1     161.338 146.031 169.847  0.00  0.00    +0.000 A 
ATOM     10  C13 UNL     1     161.017 145.206 168.809  0.00  0.00    +0.000 A 
ATOM     11  C14 UNL     1     160.940 143.855 169.036  0.00  0.00    +0.000 A 
ATOM     12  N3  UNL     1     161.176 143.338 170.257  0.00  0.00    +0.000 NA
ATOM     13  C15 UNL     1     161.492 144.162 171.271  0.00  0.00    +0.000 A 
ATOM     14  C16 UNL     1     161.726 143.591 172.504  0.00  0.00    +0.000 A 
ATOM     15  C17 UNL     1     162.053 144.387 173.580  0.00  0.00    +0.000 A 
ATOM     16  C18 UNL     1     162.141 145.746 173.396  0.00  0.00    +0.000 A 
ATOM     17  C19 UNL     1     161.916 146.360 172.183  0.00  0.00    +0.000 A 
ATOM     18  C20 UNL     1     161.591 145.540 171.129  0.00  0.00    +0.000 A 
BRANCH  11  19
ATOM     19  O2  UNL     1     160.610 143.031 167.961  0.00  0.00    +0.000 OA
ATOM     20  H19 UNL     1     159.668 143.179 167.580  0.00  0.00    +0.000 HD
ENDBRANCH  11  19
ENDBRANCH   2   9
BRANCH   6  21
ATOM     21  C4  UNL     1     165.876 149.673 167.264  0.00  0.00    +0.000 A 
ATOM     22  C5  UNL     1     166.232 150.821 167.926  0.00  0.00    +0.000 A 
ATOM     23  C6  UNL     1     167.395 151.502 167.633  0.00  0.00    +0.000 A 
ATOM     24  C7  UNL     1     168.214 150.991 166.635  0.00  0.00    +0.000 A 
ATOM     25  C8  UNL     1     167.898 149.853 165.952  0.00  0.00    +0.000 A 
ATOM     26  C9  UNL     1     166.707 149.196 166.285  0.00  0.00    +0.000 A 
ENDBRANCH   6  21
TORSDOF 3
ENDMDL
MODEL 4
REMARK VINA RESULT:      -6.2      2.046      8.019
REMARK  Name = ./3D_structures\o32_MMV596723_3D.pdb
REMARK  3 active torsions:
REMARK  status: ('A' for Active; 'I' for Inactive)
REMARK    1  A    between atoms: C1_2  and  C12_15
REMARK    2  A    between atoms: N2_6  and  C4_7
REMARK    3  A    between atoms: C14_17  and  O2_25
REMARK                            x       y       z     vdW  Elec       q    Type
REMARK                         _______ _______ _______ _____ _____    ______ ____
ROOT
ATOM      1  O1  UNL     1     151.725 160.493 164.905  0.00  0.00    +0.000 OA
ATOM      2  C1  UNL     1     151.988 161.156 165.941  0.00  0.00    +0.000 C 
ATOM      3  N1  UNL     1     153.135 160.778 166.691  0.00  0.00    +0.000 N 
ATOM      4  C2  UNL     1     153.988 159.669 166.293  0.00  0.00    +0.000 C 
ATOM      5  C3  UNL     1     154.183 158.738 167.496  0.00  0.00    +0.000 C 
ATOM      6  N2  UNL     1     154.717 159.474 168.588  0.00  0.00    +0.000 N 
ATOM      7  C10 UNL     1     153.987 160.664 169.015  0.00  0.00    +0.000 C 
ATOM      8  C11 UNL     1     153.487 161.501 167.887  0.00  0.00    +0.000 C 
ENDROOT
BRANCH   2   9
ATOM      9  C12 UNL     1     151.170 162.267 166.376  0.00  0.00    +0.000 A 
ATOM     10  C13 UNL     1     150.222 162.085 167.340  0.00  0.00    +0.000 A 
ATOM     11  C14 UNL     1     149.461 163.158 167.731  0.00  0.00    +0.000 A 
ATOM     12  N3  UNL     1     149.636 164.376 167.183  0.00  0.00    +0.000 NA
ATOM     13  C15 UNL     1     150.575 164.541 166.235  0.00  0.00    +0.000 A 
ATOM     14  C16 UNL     1     150.722 165.803 165.700  0.00  0.00    +0.000 A 
ATOM     15  C17 UNL     1     151.667 166.032 164.725  0.00  0.00    +0.000 A 
ATOM     16  C18 UNL     1     152.451 164.984 164.303  0.00  0.00    +0.000 A 
ATOM     17  C19 UNL     1     152.339 163.707 164.808  0.00  0.00    +0.000 A 
ATOM     18  C20 UNL     1     151.388 163.510 165.780  0.00  0.00    +0.000 A 
BRANCH  11  19
ATOM     19  O2  UNL     1     148.498 162.949 168.717  0.00  0.00    +0.000 OA
ATOM     20  H19 UNL     1     148.473 163.665 169.452  0.00  0.00    +0.000 HD
ENDBRANCH  11  19
ENDBRANCH   2   9
BRANCH   6  21
ATOM     21  C4  UNL     1     155.898 159.103 169.233  0.00  0.00    +0.000 A 
ATOM     22  C5  UNL     1     155.951 159.065 170.604  0.00  0.00    +0.000 A 
ATOM     23  C6  UNL     1     157.103 158.721 171.281  0.00  0.00    +0.000 A 
ATOM     24  C7  UNL     1     158.229 158.407 170.531  0.00  0.00    +0.000 A 
ATOM     25  C8  UNL     1     158.219 158.432 169.166  0.00  0.00    +0.000 A 
ATOM     26  C9  UNL     1     157.027 158.787 168.524  0.00  0.00    +0.000 A 
ENDBRANCH   6  21
TORSDOF 3
ENDMDL
MODEL 5
REMARK VINA RESULT:      -6.1      1.923      3.089
REMARK  Name = ./3D_structures\o32_MMV596723_3D.pdb
REMARK  3 active torsions:
REMARK  status: ('A' for Active; 'I' for Inactive)
REMARK    1  A    between atoms: C1_2  and  C12_15
REMARK    2  A    between atoms: N2_6  and  C4_7
REMARK    3  A    between atoms: C14_17  and  O2_25
REMARK                            x       y       z     vdW  Elec       q    Type
REMARK                         _______ _______ _______ _____ _____    ______ ____
ROOT
ATOM      1  O1  UNL     1     154.496 157.241 167.427  0.00  0.00    +0.000 OA
ATOM      2  C1  UNL     1     155.015 158.300 167.863  0.00  0.00    +0.000 C 
ATOM      3  N1  UNL     1     154.491 159.533 167.390  0.00  0.00    +0.000 N 
ATOM      4  C2  UNL     1     153.394 159.592 166.436  0.00  0.00    +0.000 C 
ATOM      5  C3  UNL     1     153.792 160.515 165.278  0.00  0.00    +0.000 C 
ATOM      6  N2  UNL     1     154.144 161.794 165.788  0.00  0.00    +0.000 N 
ATOM      7  C10 UNL     1     155.175 161.845 166.819  0.00  0.00    +0.000 C 
ATOM      8  C11 UNL     1     155.044 160.780 167.854  0.00  0.00    +0.000 C 
ENDROOT
BRANCH   2   9
ATOM      9  C12 UNL     1     156.107 158.292 168.813  0.00  0.00    +0.000 A 
ATOM     10  C13 UNL     1     155.851 158.250 170.152  0.00  0.00    +0.000 A 
ATOM     11  C14 UNL     1     156.907 158.244 171.027  0.00  0.00    +0.000 A 
ATOM     12  N3  UNL     1     158.180 158.279 170.588  0.00  0.00    +0.000 NA
ATOM     13  C15 UNL     1     158.417 158.319 169.265  0.00  0.00    +0.000 A 
ATOM     14  C16 UNL     1     159.734 158.353 168.858  0.00  0.00    +0.000 A 
ATOM     15  C17 UNL     1     160.038 158.396 167.515  0.00  0.00    +0.000 A 
ATOM     16  C18 UNL     1     159.009 158.403 166.603  0.00  0.00    +0.000 A 
ATOM     17  C19 UNL     1     157.680 158.370 166.964  0.00  0.00    +0.000 A 
ATOM     18  C20 UNL     1     157.409 158.328 168.310  0.00  0.00    +0.000 A 
BRANCH  11  19
ATOM     19  O2  UNL     1     156.622 158.201 172.392  0.00  0.00    +0.000 OA
ATOM     20  H19 UNL     1     156.300 159.090 172.792  0.00  0.00    +0.000 HD
ENDBRANCH  11  19
ENDBRANCH   2   9
BRANCH   6  21
ATOM     21  C4  UNL     1     153.531 162.968 165.345  0.00  0.00    +0.000 A 
ATOM     22  C5  UNL     1     152.253 163.270 165.743  0.00  0.00    +0.000 A 
ATOM     23  C6  UNL     1     151.605 164.410 165.315  0.00  0.00    +0.000 A 
ATOM     24  C7  UNL     1     152.287 165.264 164.457  0.00  0.00    +0.000 A 
ATOM     25  C8  UNL     1     153.559 165.001 164.038  0.00  0.00    +0.000 A 
ATOM     26  C9  UNL     1     154.175 163.832 164.499  0.00  0.00    +0.000 A 
ENDBRANCH   6  21
TORSDOF 3
ENDMDL
MODEL 6
REMARK VINA RESULT:      -6.1      5.464      9.228
REMARK  Name = ./3D_structures\o32_MMV596723_3D.pdb
REMARK  3 active torsions:
REMARK  status: ('A' for Active; 'I' for Inactive)
REMARK    1  A    between atoms: C1_2  and  C12_15
REMARK    2  A    between atoms: N2_6  and  C4_7
REMARK    3  A    between atoms: C14_17  and  O2_25
REMARK                            x       y       z     vdW  Elec       q    Type
REMARK                         _______ _______ _______ _____ _____    ______ ____
ROOT
ATOM      1  O1  UNL     1     158.447 160.891 166.860  0.00  0.00    +0.000 OA
ATOM      2  C1  UNL     1     158.783 159.730 167.207  0.00  0.00    +0.000 C 
ATOM      3  N1  UNL     1     160.167 159.481 167.418  0.00  0.00    +0.000 N 
ATOM      4  C2  UNL     1     161.174 160.517 167.245  0.00  0.00    +0.000 C 
ATOM      5  C3  UNL     1     162.284 159.982 166.333  0.00  0.00    +0.000 C 
ATOM      6  N2  UNL     1     162.819 158.786 166.884  0.00  0.00    +0.000 N 
ATOM      7  C10 UNL     1     161.881 157.708 167.183  0.00  0.00    +0.000 C 
ATOM      8  C11 UNL     1     160.614 158.171 167.817  0.00  0.00    +0.000 C 
ENDROOT
BRANCH   2   9
ATOM      9  C12 UNL     1     157.819 158.668 167.392  0.00  0.00    +0.000 A 
ATOM     10  C13 UNL     1     157.388 157.938 166.324  0.00  0.00    +0.000 A 
ATOM     11  C14 UNL     1     156.473 156.937 166.531  0.00  0.00    +0.000 A 
ATOM     12  N3  UNL     1     155.998 156.668 167.763  0.00  0.00    +0.000 NA
ATOM     13  C15 UNL     1     156.432 157.395 168.807  0.00  0.00    +0.000 A 
ATOM     14  C16 UNL     1     155.921 157.088 170.050  0.00  0.00    +0.000 A 
ATOM     15  C17 UNL     1     156.328 157.799 171.157  0.00  0.00    +0.000 A 
ATOM     16  C18 UNL     1     157.244 158.811 170.994  0.00  0.00    +0.000 A 
ATOM     17  C19 UNL     1     157.781 159.153 169.772  0.00  0.00    +0.000 A 
ATOM     18  C20 UNL     1     157.356 158.426 168.687  0.00  0.00    +0.000 A 
BRANCH  11  19
ATOM     19  O2  UNL     1     156.047 156.204 165.424  0.00  0.00    +0.000 OA
ATOM     20  H19 UNL     1     156.355 155.225 165.412  0.00  0.00    +0.000 HD
ENDBRANCH  11  19
ENDBRANCH   2   9
BRANCH   6  21
ATOM     21  C4  UNL     1     164.180 158.630 167.151  0.00  0.00    +0.000 A 
ATOM     22  C5  UNL     1     164.664 158.859 168.415  0.00  0.00    +0.000 A 
ATOM     23  C6  UNL     1     166.005 158.733 168.717  0.00  0.00    +0.000 A 
ATOM     24  C7  UNL     1     166.870 158.361 167.696  0.00  0.00    +0.000 A 
ATOM     25  C8  UNL     1     166.430 158.124 166.426  0.00  0.00    +0.000 A 
ATOM     26  C9  UNL     1     165.061 158.264 166.168  0.00  0.00    +0.000 A 
ENDBRANCH   6  21
TORSDOF 3
ENDMDL
MODEL 7
REMARK VINA RESULT:      -6.0      2.736      3.827
REMARK  Name = ./3D_structures\o32_MMV596723_3D.pdb
REMARK  3 active torsions:
REMARK  status: ('A' for Active; 'I' for Inactive)
REMARK    1  A    between atoms: C1_2  and  C12_15
REMARK    2  A    between atoms: N2_6  and  C4_7
REMARK    3  A    between atoms: C14_17  and  O2_25
REMARK                            x       y       z     vdW  Elec       q    Type
REMARK                         _______ _______ _______ _____ _____    ______ ____
ROOT
ATOM      1  O1  UNL     1     153.487 157.937 168.901  0.00  0.00    +0.000 OA
ATOM      2  C1  UNL     1     154.313 158.877 169.021  0.00  0.00    +0.000 C 
ATOM      3  N1  UNL     1     154.288 159.904 168.039  0.00  0.00    +0.000 N 
ATOM      4  C2  UNL     1     153.349 159.889 166.927  0.00  0.00    +0.000 C 
ATOM      5  C3  UNL     1     154.125 160.096 165.620  0.00  0.00    +0.000 C 
ATOM      6  N2  UNL     1     154.867 161.306 165.693  0.00  0.00    +0.000 N 
ATOM      7  C10 UNL     1     155.777 161.467 166.822  0.00  0.00    +0.000 C 
ATOM      8  C11 UNL     1     155.211 161.008 168.123  0.00  0.00    +0.000 C 
ENDROOT
BRANCH   2   9
ATOM      9  C12 UNL     1     155.265 158.936 170.109  0.00  0.00    +0.000 A 
ATOM     10  C13 UNL     1     156.544 158.497 169.926  0.00  0.00    +0.000 A 
ATOM     11  C14 UNL     1     157.423 158.566 170.977  0.00  0.00    +0.000 A 
ATOM     12  N3  UNL     1     157.046 159.056 172.173  0.00  0.00    +0.000 NA
ATOM     13  C15 UNL     1     155.783 159.486 172.339  0.00  0.00    +0.000 A 
ATOM     14  C16 UNL     1     155.438 159.980 173.579  0.00  0.00    +0.000 A 
ATOM     15  C17 UNL     1     154.158 160.434 173.807  0.00  0.00    +0.000 A 
ATOM     16  C18 UNL     1     153.245 160.383 172.782  0.00  0.00    +0.000 A 
ATOM     17  C19 UNL     1     153.544 159.898 171.528  0.00  0.00    +0.000 A 
ATOM     18  C20 UNL     1     154.829 159.452 171.330  0.00  0.00    +0.000 A 
BRANCH  11  19
ATOM     19  O2  UNL     1     158.725 158.112 170.768  0.00  0.00    +0.000 OA
ATOM     20  H19 UNL     1     159.309 158.731 170.194  0.00  0.00    +0.000 HD
ENDBRANCH  11  19
ENDBRANCH   2   9
BRANCH   6  21
ATOM     21  C4  UNL     1     154.737 162.320 164.742  0.00  0.00    +0.000 A 
ATOM     22  C5  UNL     1     153.501 162.848 164.464  0.00  0.00    +0.000 A 
ATOM     23  C6  UNL     1     153.327 163.839 163.520  0.00  0.00    +0.000 A 
ATOM     24  C7  UNL     1     154.449 164.299 162.844  0.00  0.00    +0.000 A 
ATOM     25  C8  UNL     1     155.696 163.801 163.090  0.00  0.00    +0.000 A 
ATOM     26  C9  UNL     1     155.823 162.797 164.058  0.00  0.00    +0.000 A 
ENDBRANCH   6  21
TORSDOF 3
ENDMDL
MODEL 8
REMARK VINA RESULT:      -6.0      3.628      8.314
REMARK  Name = ./3D_structures\o32_MMV596723_3D.pdb
REMARK  3 active torsions:
REMARK  status: ('A' for Active; 'I' for Inactive)
REMARK    1  A    between atoms: C1_2  and  C12_15
REMARK    2  A    between atoms: N2_6  and  C4_7
REMARK    3  A    between atoms: C14_17  and  O2_25
REMARK                            x       y       z     vdW  Elec       q    Type
REMARK                         _______ _______ _______ _____ _____    ______ ____
ROOT
ATOM      1  O1  UNL     1     150.232 164.644 166.098  0.00  0.00    +0.000 OA
ATOM      2  C1  UNL     1     150.380 164.049 167.196  0.00  0.00    +0.000 C 
ATOM      3  N1  UNL     1     151.340 163.002 167.253  0.00  0.00    +0.000 N 
ATOM      4  C2  UNL     1     152.134 162.617 166.095  0.00  0.00    +0.000 C 
ATOM      5  C3  UNL     1     152.028 161.099 165.905  0.00  0.00    +0.000 C 
ATOM      6  N2  UNL     1     152.440 160.440 167.095  0.00  0.00    +0.000 N 
ATOM      7  C10 UNL     1     151.771 160.816 168.336  0.00  0.00    +0.000 C 
ATOM      8  C11 UNL     1     151.556 162.284 168.483  0.00  0.00    +0.000 C 
ENDROOT
BRANCH   2   9
ATOM      9  C12 UNL     1     149.615 164.397 168.374  0.00  0.00    +0.000 A 
ATOM     10  C13 UNL     1     148.485 163.702 168.688  0.00  0.00    +0.000 A 
ATOM     11  C14 UNL     1     147.781 164.055 169.811  0.00  0.00    +0.000 A 
ATOM     12  N3  UNL     1     148.187 165.069 170.600  0.00  0.00    +0.000 NA
ATOM     13  C15 UNL     1     149.304 165.745 170.279  0.00  0.00    +0.000 A 
ATOM     14  C16 UNL     1     149.683 166.775 171.113  0.00  0.00    +0.000 A 
ATOM     15  C17 UNL     1     150.819 167.503 170.834  0.00  0.00    +0.000 A 
ATOM     16  C18 UNL     1     151.554 167.182 169.718  0.00  0.00    +0.000 A 
ATOM     17  C19 UNL     1     151.212 166.162 168.856  0.00  0.00    +0.000 A 
ATOM     18  C20 UNL     1     150.075 165.454 169.161  0.00  0.00    +0.000 A 
BRANCH  11  19
ATOM     19  O2  UNL     1     146.628 163.331 170.112  0.00  0.00    +0.000 OA
ATOM     20  H19 UNL     1     146.783 162.333 170.293  0.00  0.00    +0.000 HD
ENDBRANCH  11  19
ENDBRANCH   2   9
BRANCH   6  21
ATOM     21  C4  UNL     1     153.453 159.478 167.104  0.00  0.00    +0.000 A 
ATOM     22  C5  UNL     1     153.689 158.738 168.236  0.00  0.00    +0.000 A 
ATOM     23  C6  UNL     1     154.690 157.790 168.292  0.00  0.00    +0.000 A 
ATOM     24  C7  UNL     1     155.468 157.597 167.158  0.00  0.00    +0.000 A 
ATOM     25  C8  UNL     1     155.266 158.311 166.013  0.00  0.00    +0.000 A 
ATOM     26  C9  UNL     1     154.238 159.261 166.003  0.00  0.00    +0.000 A 
ENDBRANCH   6  21
TORSDOF 3
ENDMDL
MODEL 9
REMARK VINA RESULT:      -5.9      3.237      8.642
REMARK  Name = ./3D_structures\o32_MMV596723_3D.pdb
REMARK  3 active torsions:
REMARK  status: ('A' for Active; 'I' for Inactive)
REMARK    1  A    between atoms: C1_2  and  C12_15
REMARK    2  A    between atoms: N2_6  and  C4_7
REMARK    3  A    between atoms: C14_17  and  O2_25
REMARK                            x       y       z     vdW  Elec       q    Type
REMARK                         _______ _______ _______ _____ _____    ______ ____
ROOT
ATOM      1  O1  UNL     1     151.005 161.283 166.146  0.00  0.00    +0.000 OA
ATOM      2  C1  UNL     1     150.580 161.622 167.280  0.00  0.00    +0.000 C 
ATOM      3  N1  UNL     1     151.453 161.448 168.389  0.00  0.00    +0.000 N 
ATOM      4  C2  UNL     1     152.792 160.899 168.240  0.00  0.00    +0.000 C 
ATOM      5  C3  UNL     1     152.975 159.758 169.249  0.00  0.00    +0.000 C 
ATOM      6  N2  UNL     1     152.723 160.239 170.563  0.00  0.00    +0.000 N 
ATOM      7  C10 UNL     1     151.441 160.892 170.803  0.00  0.00    +0.000 C 
ATOM      8  C11 UNL     1     151.023 161.819 169.713  0.00  0.00    +0.000 C 
ENDROOT
BRANCH   2   9
ATOM      9  C12 UNL     1     149.257 162.174 167.478  0.00  0.00    +0.000 A 
ATOM     10  C13 UNL     1     148.257 161.394 167.980  0.00  0.00    +0.000 A 
ATOM     11  C14 UNL     1     147.013 161.945 168.156  0.00  0.00    +0.000 A 
ATOM     12  N3  UNL     1     146.768 163.232 167.843  0.00  0.00    +0.000 NA
ATOM     13  C15 UNL     1     147.764 163.989 167.350  0.00  0.00    +0.000 A 
ATOM     14  C16 UNL     1     147.471 165.301 167.042  0.00  0.00    +0.000 A 
ATOM     15  C17 UNL     1     148.451 166.124 166.533  0.00  0.00    +0.000 A 
ATOM     16  C18 UNL     1     149.712 165.612 166.341  0.00  0.00    +0.000 A 
ATOM     17  C19 UNL     1     150.050 164.309 166.633  0.00  0.00    +0.000 A 
ATOM     18  C20 UNL     1     149.051 163.513 167.139  0.00  0.00    +0.000 A 
BRANCH  11  19
ATOM     19  O2  UNL     1     146.006 161.129 168.671  0.00  0.00    +0.000 OA
ATOM     20  H19 UNL     1     145.721 161.353 169.631  0.00  0.00    +0.000 HD
ENDBRANCH  11  19
ENDBRANCH   2   9
BRANCH   6  21
ATOM     21  C4  UNL     1     153.656 160.116 171.594  0.00  0.00    +0.000 A 
ATOM     22  C5  UNL     1     154.915 159.635 171.331  0.00  0.00    +0.000 A 
ATOM     23  C6  UNL     1     155.860 159.482 172.323  0.00  0.00    +0.000 A 
ATOM     24  C7  UNL     1     155.506 159.832 173.620  0.00  0.00    +0.000 A 
ATOM     25  C8  UNL     1     154.266 160.314 173.925  0.00  0.00    +0.000 A 
ATOM     26  C9  UNL     1     153.340 160.452 172.884  0.00  0.00    +0.000 A 
ENDBRANCH   6  21
TORSDOF 3
ENDMDL
