MODEL 1
REMARK VINA RESULT:      -6.4      0.000      0.000
REMARK  Name = ./3D_structures\o34_MMV1581031_3D.pdb
REMARK  2 active torsions:
REMARK  status: ('A' for Active; 'I' for Inactive)
REMARK    1  A    between atoms: C2_3  and  C7_9
REMARK    2  A    between atoms: C9_16  and  C11_18
REMARK                            x       y       z     vdW  Elec       q    Type
REMARK                         _______ _______ _______ _____ _____    ______ ____
ROOT
ATOM      1  C7  UNL     1     157.734 157.816 167.274  0.00  0.00    +0.000 C 
ATOM      2  N1  UNL     1     156.926 158.633 166.368  0.00  0.00    +0.000 N 
ATOM      3  N2  UNL     1     155.883 159.400 166.465  0.00  0.00    +0.000 NA
ATOM      4  N3  UNL     1     155.622 159.867 165.258  0.00  0.00    +0.000 NA
ATOM      5  N4  UNL     1     156.495 159.402 164.381  0.00  0.00    +0.000 NA
ATOM      6  C8  UNL     1     157.328 158.613 165.089  0.00  0.00    +0.000 A 
ATOM      7  N5  UNL     1     158.464 157.828 164.772  0.00  0.00    +0.000 N 
ATOM      8  C9  UNL     1     158.660 156.550 165.419  0.00  0.00    +0.000 C 
ATOM      9  C10 UNL     1     157.810 156.449 166.668  0.00  0.00    +0.000 C 
ATOM     10  H5  UNL     1     159.153 158.195 164.059  0.00  0.00    +0.000 HD
ENDROOT
BRANCH   1  13
ATOM     11 CL1  UNL     1     159.567 159.259 169.049  0.00  0.00    +0.000 Cl
ATOM     12  C1  UNL     1     158.056 158.545 169.579  0.00  0.00    +0.000 A 
ATOM     13  C2  UNL     1     157.271 157.885 168.654  0.00  0.00    +0.000 A 
ATOM     14  C3  UNL     1     156.092 157.344 169.130  0.00  0.00    +0.000 A 
ATOM     15  C4  UNL     1     155.727 157.462 170.478  0.00  0.00    +0.000 A 
ATOM     16  C5  UNL     1     156.535 158.127 171.373  0.00  0.00    +0.000 A 
ATOM     17  C6  UNL     1     157.708 158.667 170.904  0.00  0.00    +0.000 A 
ATOM     18  F1  UNL     1     155.298 156.698 168.268  0.00  0.00    +0.000 F 
ENDBRANCH   1  13
BRANCH   8  19
ATOM     19  C11 UNL     1     158.312 155.507 164.404  0.00  0.00    +0.000 A 
ATOM     20  C12 UNL     1     157.796 155.757 163.174  0.00  0.00    +0.000 A 
ATOM     21  C13 UNL     1     157.508 154.709 162.292  0.00  0.00    +0.000 A 
ATOM     22  C14 UNL     1     157.755 153.409 162.682  0.00  0.00    +0.000 A 
ATOM     23 CL2  UNL     1     157.398 152.089 161.584  0.00  0.00    +0.000 Cl
ATOM     24  C15 UNL     1     158.272 153.124 163.908  0.00  0.00    +0.000 A 
ATOM     25  C16 UNL     1     158.546 154.175 164.758  0.00  0.00    +0.000 A 
ENDBRANCH   8  19
TORSDOF 2
ENDMDL
MODEL 2
REMARK VINA RESULT:      -6.4      4.133      5.620
REMARK  Name = ./3D_structures\o34_MMV1581031_3D.pdb
REMARK  2 active torsions:
REMARK  status: ('A' for Active; 'I' for Inactive)
REMARK    1  A    between atoms: C2_3  and  C7_9
REMARK    2  A    between atoms: C9_16  and  C11_18
REMARK                            x       y       z     vdW  Elec       q    Type
REMARK                         _______ _______ _______ _____ _____    ______ ____
ROOT
ATOM      1  C7  UNL     1     154.020 158.398 169.493  0.00  0.00    +0.000 C 
ATOM      2  N1  UNL     1     154.940 158.599 170.613  0.00  0.00    +0.000 N 
ATOM      3  N2  UNL     1     155.047 159.423 171.610  0.00  0.00    +0.000 NA
ATOM      4  N3  UNL     1     156.124 159.079 172.293  0.00  0.00    +0.000 NA
ATOM      5  N4  UNL     1     156.712 158.033 171.737  0.00  0.00    +0.000 NA
ATOM      6  C8  UNL     1     155.957 157.726 170.664  0.00  0.00    +0.000 A 
ATOM      7  N5  UNL     1     156.018 156.732 169.656  0.00  0.00    +0.000 N 
ATOM      8  C9  UNL     1     155.660 157.064 168.295  0.00  0.00    +0.000 C 
ATOM      9  C10 UNL     1     154.858 158.348 168.253  0.00  0.00    +0.000 C 
ATOM     10  H5  UNL     1     156.331 155.758 169.920  0.00  0.00    +0.000 HD
ENDROOT
BRANCH   1  13
ATOM     11 CL1  UNL     1     151.434 157.211 170.194  0.00  0.00    +0.000 Cl
ATOM     12  C1  UNL     1     151.656 158.908 169.809  0.00  0.00    +0.000 A 
ATOM     13  C2  UNL     1     152.923 159.357 169.491  0.00  0.00    +0.000 A 
ATOM     14  C3  UNL     1     153.036 160.703 169.197  0.00  0.00    +0.000 A 
ATOM     15  C4  UNL     1     151.921 161.551 169.223  0.00  0.00    +0.000 A 
ATOM     16  C5  UNL     1     150.672 161.068 169.546  0.00  0.00    +0.000 A 
ATOM     17  C6  UNL     1     150.555 159.731 169.838  0.00  0.00    +0.000 A 
ATOM     18  F1  UNL     1     154.245 161.183 168.886  0.00  0.00    +0.000 F 
ENDBRANCH   1  13
BRANCH   8  19
ATOM     19  C11 UNL     1     156.944 157.165 167.535  0.00  0.00    +0.000 A 
ATOM     20  C12 UNL     1     157.998 157.947 167.882  0.00  0.00    +0.000 A 
ATOM     21  C13 UNL     1     159.161 157.968 167.105  0.00  0.00    +0.000 A 
ATOM     22  C14 UNL     1     159.233 157.183 165.973  0.00  0.00    +0.000 A 
ATOM     23 CL2  UNL     1     160.687 157.203 164.992  0.00  0.00    +0.000 Cl
ATOM     24  C15 UNL     1     158.194 156.389 165.596  0.00  0.00    +0.000 A 
ATOM     25  C16 UNL     1     157.060 156.386 166.380  0.00  0.00    +0.000 A 
ENDBRANCH   8  19
TORSDOF 2
ENDMDL
MODEL 3
REMARK VINA RESULT:      -6.3      2.644      7.241
REMARK  Name = ./3D_structures\o34_MMV1581031_3D.pdb
REMARK  2 active torsions:
REMARK  status: ('A' for Active; 'I' for Inactive)
REMARK    1  A    between atoms: C2_3  and  C7_9
REMARK    2  A    between atoms: C9_16  and  C11_18
REMARK                            x       y       z     vdW  Elec       q    Type
REMARK                         _______ _______ _______ _____ _____    ______ ____
ROOT
ATOM      1  C7  UNL     1     159.031 155.008 164.032  0.00  0.00    +0.000 C 
ATOM      2  N1  UNL     1     160.442 154.986 164.417  0.00  0.00    +0.000 N 
ATOM      3  N2  UNL     1     161.412 154.122 164.400  0.00  0.00    +0.000 NA
ATOM      4  N3  UNL     1     162.481 154.719 164.897  0.00  0.00    +0.000 NA
ATOM      5  N4  UNL     1     162.202 155.967 165.233  0.00  0.00    +0.000 NA
ATOM      6  C8  UNL     1     160.901 156.138 164.928  0.00  0.00    +0.000 A 
ATOM      7  N5  UNL     1     159.989 157.218 165.028  0.00  0.00    +0.000 N 
ATOM      8  C9  UNL     1     158.616 156.969 165.406  0.00  0.00    +0.000 C 
ATOM      9  C10 UNL     1     158.269 155.506 165.222  0.00  0.00    +0.000 C 
ATOM     10  H5  UNL     1     160.335 158.196 164.826  0.00  0.00    +0.000 HD
ENDROOT
BRANCH   1  13
ATOM     11 CL1  UNL     1     158.426 155.162 161.168  0.00  0.00    +0.000 Cl
ATOM     12  C1  UNL     1     158.274 153.696 162.121  0.00  0.00    +0.000 A 
ATOM     13  C2  UNL     1     158.585 153.742 163.465  0.00  0.00    +0.000 A 
ATOM     14  C3  UNL     1     158.446 152.557 164.163  0.00  0.00    +0.000 A 
ATOM     15  C4  UNL     1     158.011 151.385 163.531  0.00  0.00    +0.000 A 
ATOM     16  C5  UNL     1     157.710 151.377 162.187  0.00  0.00    +0.000 A 
ATOM     17  C6  UNL     1     157.846 152.552 161.490  0.00  0.00    +0.000 A 
ATOM     18  F1  UNL     1     158.740 152.554 165.468  0.00  0.00    +0.000 F 
ENDBRANCH   1  13
BRANCH   8  19
ATOM     19  C11 UNL     1     158.483 157.414 166.828  0.00  0.00    +0.000 A 
ATOM     20  C12 UNL     1     159.384 158.182 167.493  0.00  0.00    +0.000 A 
ATOM     21  C13 UNL     1     159.165 158.551 168.825  0.00  0.00    +0.000 A 
ATOM     22  C14 UNL     1     158.019 158.127 169.465  0.00  0.00    +0.000 A 
ATOM     23 CL2  UNL     1     157.736 158.585 171.134  0.00  0.00    +0.000 Cl
ATOM     24  C15 UNL     1     157.096 157.357 168.827  0.00  0.00    +0.000 A 
ATOM     25  C16 UNL     1     157.335 157.008 167.515  0.00  0.00    +0.000 A 
ENDBRANCH   8  19
TORSDOF 2
ENDMDL
MODEL 4
REMARK VINA RESULT:      -6.2      2.443      6.732
REMARK  Name = ./3D_structures\o34_MMV1581031_3D.pdb
REMARK  2 active torsions:
REMARK  status: ('A' for Active; 'I' for Inactive)
REMARK    1  A    between atoms: C2_3  and  C7_9
REMARK    2  A    between atoms: C9_16  and  C11_18
REMARK                            x       y       z     vdW  Elec       q    Type
REMARK                         _______ _______ _______ _____ _____    ______ ____
ROOT
ATOM      1  C7  UNL     1     157.418 157.081 166.598  0.00  0.00    +0.000 C 
ATOM      2  N1  UNL     1     156.690 158.179 165.963  0.00  0.00    +0.000 N 
ATOM      3  N2  UNL     1     156.899 159.013 164.990  0.00  0.00    +0.000 NA
ATOM      4  N3  UNL     1     155.834 159.789 164.899  0.00  0.00    +0.000 NA
ATOM      5  N4  UNL     1     154.937 159.458 165.812  0.00  0.00    +0.000 NA
ATOM      6  C8  UNL     1     155.483 158.430 166.493  0.00  0.00    +0.000 A 
ATOM      7  N5  UNL     1     155.062 157.618 167.575  0.00  0.00    +0.000 N 
ATOM      8  C9  UNL     1     156.016 157.205 168.579  0.00  0.00    +0.000 C 
ATOM      9  C10 UNL     1     157.432 157.368 168.068  0.00  0.00    +0.000 C 
ATOM     10  H5  UNL     1     154.047 157.330 167.630  0.00  0.00    +0.000 HD
ENDROOT
BRANCH   1  13
ATOM     11 CL1  UNL     1     157.384 154.876 164.667  0.00  0.00    +0.000 Cl
ATOM     12  C1  UNL     1     158.814 155.818 165.047  0.00  0.00    +0.000 A 
ATOM     13  C2  UNL     1     158.712 156.834 165.977  0.00  0.00    +0.000 A 
ATOM     14  C3  UNL     1     159.872 157.542 166.234  0.00  0.00    +0.000 A 
ATOM     15  C4  UNL     1     161.074 157.233 165.585  0.00  0.00    +0.000 A 
ATOM     16  C5  UNL     1     161.138 156.212 164.662  0.00  0.00    +0.000 A 
ATOM     17  C6  UNL     1     159.988 155.507 164.403  0.00  0.00    +0.000 A 
ATOM     18  F1  UNL     1     159.820 158.538 167.126  0.00  0.00    +0.000 F 
ENDBRANCH   1  13
BRANCH   8  19
ATOM     19  C11 UNL     1     155.744 158.041 169.789  0.00  0.00    +0.000 A 
ATOM     20  C12 UNL     1     154.640 158.809 169.975  0.00  0.00    +0.000 A 
ATOM     21  C13 UNL     1     154.474 159.554 171.147  0.00  0.00    +0.000 A 
ATOM     22  C14 UNL     1     155.448 159.504 172.124  0.00  0.00    +0.000 A 
ATOM     23 CL2  UNL     1     155.249 160.434 173.597  0.00  0.00    +0.000 Cl
ATOM     24  C15 UNL     1     156.567 158.745 171.969  0.00  0.00    +0.000 A 
ATOM     25  C16 UNL     1     156.704 158.020 170.804  0.00  0.00    +0.000 A 
ENDBRANCH   8  19
TORSDOF 2
ENDMDL
MODEL 5
REMARK VINA RESULT:      -6.2      2.707      7.360
REMARK  Name = ./3D_structures\o34_MMV1581031_3D.pdb
REMARK  2 active torsions:
REMARK  status: ('A' for Active; 'I' for Inactive)
REMARK    1  A    between atoms: C2_3  and  C7_9
REMARK    2  A    between atoms: C9_16  and  C11_18
REMARK                            x       y       z     vdW  Elec       q    Type
REMARK                         _______ _______ _______ _____ _____    ______ ____
ROOT
ATOM      1  C7  UNL     1     159.121 154.774 163.838  0.00  0.00    +0.000 C 
ATOM      2  N1  UNL     1     160.504 154.822 164.311  0.00  0.00    +0.000 N 
ATOM      3  N2  UNL     1     161.515 154.008 164.357  0.00  0.00    +0.000 NA
ATOM      4  N3  UNL     1     162.519 154.657 164.919  0.00  0.00    +0.000 NA
ATOM      5  N4  UNL     1     162.158 155.889 165.235  0.00  0.00    +0.000 NA
ATOM      6  C8  UNL     1     160.871 155.995 164.848  0.00  0.00    +0.000 A 
ATOM      7  N5  UNL     1     159.902 157.028 164.888  0.00  0.00    +0.000 N 
ATOM      8  C9  UNL     1     158.522 156.709 165.179  0.00  0.00    +0.000 C 
ATOM      9  C10 UNL     1     158.261 155.231 164.975  0.00  0.00    +0.000 C 
ATOM     10  H5  UNL     1     160.210 158.022 164.707  0.00  0.00    +0.000 HD
ENDROOT
BRANCH   1  13
ATOM     11 CL1  UNL     1     158.847 154.869 160.921  0.00  0.00    +0.000 Cl
ATOM     12  C1  UNL     1     158.623 153.414 161.875  0.00  0.00    +0.000 A 
ATOM     13  C2  UNL     1     158.776 153.488 163.245  0.00  0.00    +0.000 A 
ATOM     14  C3  UNL     1     158.588 152.310 163.944  0.00  0.00    +0.000 A 
ATOM     15  C4  UNL     1     158.259 151.117 163.287  0.00  0.00    +0.000 A 
ATOM     16  C5  UNL     1     158.115 151.081 161.917  0.00  0.00    +0.000 A 
ATOM     17  C6  UNL     1     158.301 152.249 161.219  0.00  0.00    +0.000 A 
ATOM     18  F1  UNL     1     158.729 152.334 165.274  0.00  0.00    +0.000 F 
ENDBRANCH   1  13
BRANCH   8  19
ATOM     19  C11 UNL     1     158.277 157.145 166.589  0.00  0.00    +0.000 A 
ATOM     20  C12 UNL     1     157.220 156.765 167.351  0.00  0.00    +0.000 A 
ATOM     21  C13 UNL     1     157.082 157.226 168.665  0.00  0.00    +0.000 A 
ATOM     22  C14 UNL     1     158.035 158.076 169.188  0.00  0.00    +0.000 A 
ATOM     23 CL2  UNL     1     157.871 158.658 170.834  0.00  0.00    +0.000 Cl
ATOM     24  C15 UNL     1     159.106 158.477 168.450  0.00  0.00    +0.000 A 
ATOM     25  C16 UNL     1     159.218 158.008 167.158  0.00  0.00    +0.000 A 
ENDBRANCH   8  19
TORSDOF 2
ENDMDL
MODEL 6
REMARK VINA RESULT:      -6.0     15.439     17.014
REMARK  Name = ./3D_structures\o34_MMV1581031_3D.pdb
REMARK  2 active torsions:
REMARK  status: ('A' for Active; 'I' for Inactive)
REMARK    1  A    between atoms: C2_3  and  C7_9
REMARK    2  A    between atoms: C9_16  and  C11_18
REMARK                            x       y       z     vdW  Elec       q    Type
REMARK                         _______ _______ _______ _____ _____    ______ ____
ROOT
ATOM      1  C7  UNL     1     161.909 141.793 167.049  0.00  0.00    +0.000 C 
ATOM      2  N1  UNL     1     161.437 140.411 166.968  0.00  0.00    +0.000 N 
ATOM      3  N2  UNL     1     161.144 139.462 167.805  0.00  0.00    +0.000 NA
ATOM      4  N3  UNL     1     160.766 138.413 167.097  0.00  0.00    +0.000 NA
ATOM      5  N4  UNL     1     160.816 138.683 165.804  0.00  0.00    +0.000 NA
ATOM      6  C8  UNL     1     161.245 139.958 165.720  0.00  0.00    +0.000 A 
ATOM      7  N5  UNL     1     161.508 140.851 164.652  0.00  0.00    +0.000 N 
ATOM      8  C9  UNL     1     162.633 141.756 164.731  0.00  0.00    +0.000 C 
ATOM      9  C10 UNL     1     163.111 141.890 166.162  0.00  0.00    +0.000 C 
ATOM     10  H5  UNL     1     160.872 140.837 163.809  0.00  0.00    +0.000 HD
ENDROOT
BRANCH   1  13
ATOM     11 CL1  UNL     1     159.849 143.685 167.927  0.00  0.00    +0.000 Cl
ATOM     12  C1  UNL     1     161.169 143.138 168.945  0.00  0.00    +0.000 A 
ATOM     13  C2  UNL     1     162.084 142.245 168.423  0.00  0.00    +0.000 A 
ATOM     14  C3  UNL     1     163.101 141.850 169.272  0.00  0.00    +0.000 A 
ATOM     15  C4  UNL     1     163.188 142.338 170.583  0.00  0.00    +0.000 A 
ATOM     16  C5  UNL     1     162.256 143.229 171.069  0.00  0.00    +0.000 A 
ATOM     17  C6  UNL     1     161.244 143.623 170.229  0.00  0.00    +0.000 A 
ATOM     18  F1  UNL     1     164.009 140.983 168.811  0.00  0.00    +0.000 F 
ENDBRANCH   1  13
BRANCH   8  19
ATOM     19  C11 UNL     1     163.686 141.198 163.826  0.00  0.00    +0.000 A 
ATOM     20  C12 UNL     1     163.457 140.666 162.598  0.00  0.00    +0.000 A 
ATOM     21  C13 UNL     1     164.513 140.173 161.823  0.00  0.00    +0.000 A 
ATOM     22  C14 UNL     1     165.800 140.230 162.318  0.00  0.00    +0.000 A 
ATOM     23 CL2  UNL     1     167.130 139.615 161.355  0.00  0.00    +0.000 Cl
ATOM     24  C15 UNL     1     166.063 140.756 163.545  0.00  0.00    +0.000 A 
ATOM     25  C16 UNL     1     165.005 141.236 164.288  0.00  0.00    +0.000 A 
ENDBRANCH   8  19
TORSDOF 2
ENDMDL
MODEL 7
REMARK VINA RESULT:      -6.0      3.438      4.797
REMARK  Name = ./3D_structures\o34_MMV1581031_3D.pdb
REMARK  2 active torsions:
REMARK  status: ('A' for Active; 'I' for Inactive)
REMARK    1  A    between atoms: C2_3  and  C7_9
REMARK    2  A    between atoms: C9_16  and  C11_18
REMARK                            x       y       z     vdW  Elec       q    Type
REMARK                         _______ _______ _______ _____ _____    ______ ____
ROOT
ATOM      1  C7  UNL     1     155.892 159.800 169.711  0.00  0.00    +0.000 C 
ATOM      2  N1  UNL     1     155.199 158.670 169.091  0.00  0.00    +0.000 N 
ATOM      3  N2  UNL     1     154.335 157.774 169.460  0.00  0.00    +0.000 NA
ATOM      4  N3  UNL     1     154.093 157.003 168.415  0.00  0.00    +0.000 NA
ATOM      5  N4  UNL     1     154.801 157.400 167.371  0.00  0.00    +0.000 NA
ATOM      6  C8  UNL     1     155.508 158.464 167.802  0.00  0.00    +0.000 A 
ATOM      7  N5  UNL     1     156.440 159.347 167.203  0.00  0.00    +0.000 N 
ATOM      8  C9  UNL     1     157.579 159.815 167.962  0.00  0.00    +0.000 C 
ATOM      9  C10 UNL     1     157.353 159.606 169.445  0.00  0.00    +0.000 C 
ATOM     10  H5  UNL     1     156.287 159.647 166.202  0.00  0.00    +0.000 HD
ENDROOT
BRANCH   1  13
ATOM     11 CL1  UNL     1     153.787 161.808 170.073  0.00  0.00    +0.000 Cl
ATOM     12  C1  UNL     1     154.524 160.917 171.393  0.00  0.00    +0.000 A 
ATOM     13  C2  UNL     1     155.510 159.994 171.103  0.00  0.00    +0.000 A 
ATOM     14  C3  UNL     1     156.052 159.324 172.183  0.00  0.00    +0.000 A 
ATOM     15  C4  UNL     1     155.619 159.576 173.492  0.00  0.00    +0.000 A 
ATOM     16  C5  UNL     1     154.632 160.505 173.742  0.00  0.00    +0.000 A 
ATOM     17  C6  UNL     1     154.090 161.173 172.672  0.00  0.00    +0.000 A 
ATOM     18  F1  UNL     1     157.009 158.418 171.950  0.00  0.00    +0.000 F 
ENDBRANCH   1  13
BRANCH   8  19
ATOM     19  C11 UNL     1     158.764 159.060 167.452  0.00  0.00    +0.000 A 
ATOM     20  C12 UNL     1     159.933 158.895 168.122  0.00  0.00    +0.000 A 
ATOM     21  C13 UNL     1     160.985 158.164 167.559  0.00  0.00    +0.000 A 
ATOM     22  C14 UNL     1     160.828 157.606 166.307  0.00  0.00    +0.000 A 
ATOM     23 CL2  UNL     1     162.141 156.689 165.594  0.00  0.00    +0.000 Cl
ATOM     24  C15 UNL     1     159.670 157.753 165.608  0.00  0.00    +0.000 A 
ATOM     25  C16 UNL     1     158.649 158.477 166.186  0.00  0.00    +0.000 A 
ENDBRANCH   8  19
TORSDOF 2
ENDMDL
MODEL 8
REMARK VINA RESULT:      -5.9     11.355     12.202
REMARK  Name = ./3D_structures\o34_MMV1581031_3D.pdb
REMARK  2 active torsions:
REMARK  status: ('A' for Active; 'I' for Inactive)
REMARK    1  A    between atoms: C2_3  and  C7_9
REMARK    2  A    between atoms: C9_16  and  C11_18
REMARK                            x       y       z     vdW  Elec       q    Type
REMARK                         _______ _______ _______ _____ _____    ______ ____
ROOT
ATOM      1  C7  UNL     1     146.668 152.112 168.241  0.00  0.00    +0.000 C 
ATOM      2  N1  UNL     1     147.988 151.744 167.727  0.00  0.00    +0.000 N 
ATOM      3  N2  UNL     1     149.222 152.061 167.979  0.00  0.00    +0.000 NA
ATOM      4  N3  UNL     1     149.984 151.372 167.150  0.00  0.00    +0.000 NA
ATOM      5  N4  UNL     1     149.244 150.610 166.362  0.00  0.00    +0.000 NA
ATOM      6  C8  UNL     1     147.969 150.848 166.729  0.00  0.00    +0.000 A 
ATOM      7  N5  UNL     1     146.706 150.368 166.304  0.00  0.00    +0.000 N 
ATOM      8  C9  UNL     1     145.577 151.269 166.240  0.00  0.00    +0.000 C 
ATOM      9  C10 UNL     1     145.843 152.516 167.058  0.00  0.00    +0.000 C 
ATOM     10  H5  UNL     1     146.612 149.350 166.035  0.00  0.00    +0.000 HD
ENDROOT
BRANCH   1  13
ATOM     11 CL1  UNL     1     146.229 150.911 170.878  0.00  0.00    +0.000 Cl
ATOM     12  C1  UNL     1     146.551 152.616 170.624  0.00  0.00    +0.000 A 
ATOM     13  C2  UNL     1     146.741 153.072 169.334  0.00  0.00    +0.000 A 
ATOM     14  C3  UNL     1     146.991 154.424 169.197  0.00  0.00    +0.000 A 
ATOM     15  C4  UNL     1     147.045 155.273 170.310  0.00  0.00    +0.000 A 
ATOM     16  C5  UNL     1     146.851 154.783 171.583  0.00  0.00    +0.000 A 
ATOM     17  C6  UNL     1     146.602 153.439 171.724  0.00  0.00    +0.000 A 
ATOM     18  F1  UNL     1     147.184 154.910 167.965  0.00  0.00    +0.000 F 
ENDBRANCH   1  13
BRANCH   8  19
ATOM     19  C11 UNL     1     145.361 151.571 164.791  0.00  0.00    +0.000 A 
ATOM     20  C12 UNL     1     144.498 152.500 164.307  0.00  0.00    +0.000 A 
ATOM     21  C13 UNL     1     144.371 152.712 162.929  0.00  0.00    +0.000 A 
ATOM     22  C14 UNL     1     145.135 151.965 162.057  0.00  0.00    +0.000 A 
ATOM     23 CL2  UNL     1     144.983 152.222 160.329  0.00  0.00    +0.000 Cl
ATOM     24  C15 UNL     1     146.009 151.024 162.509  0.00  0.00    +0.000 A 
ATOM     25  C16 UNL     1     146.115 150.836 163.870  0.00  0.00    +0.000 A 
ENDBRANCH   8  19
TORSDOF 2
ENDMDL
MODEL 9
REMARK VINA RESULT:      -5.7      2.204      6.576
REMARK  Name = ./3D_structures\o34_MMV1581031_3D.pdb
REMARK  2 active torsions:
REMARK  status: ('A' for Active; 'I' for Inactive)
REMARK    1  A    between atoms: C2_3  and  C7_9
REMARK    2  A    between atoms: C9_16  and  C11_18
REMARK                            x       y       z     vdW  Elec       q    Type
REMARK                         _______ _______ _______ _____ _____    ______ ____
ROOT
ATOM      1  C7  UNL     1     158.025 156.555 164.755  0.00  0.00    +0.000 C 
ATOM      2  N1  UNL     1     157.916 157.989 164.486  0.00  0.00    +0.000 N 
ATOM      3  N2  UNL     1     158.599 158.883 163.838  0.00  0.00    +0.000 NA
ATOM      4  N3  UNL     1     157.968 160.035 163.971  0.00  0.00    +0.000 NA
ATOM      5  N4  UNL     1     156.878 159.887 164.705  0.00  0.00    +0.000 NA
ATOM      6  C8  UNL     1     156.845 158.580 165.035  0.00  0.00    +0.000 A 
ATOM      7  N5  UNL     1     155.962 157.767 165.788  0.00  0.00    +0.000 N 
ATOM      8  C9  UNL     1     156.491 156.719 166.632  0.00  0.00    +0.000 C 
ATOM      9  C10 UNL     1     157.915 156.386 166.239  0.00  0.00    +0.000 C 
ATOM     10  H5  UNL     1     154.922 157.945 165.720  0.00  0.00    +0.000 HD
ENDROOT
BRANCH   1  13
ATOM     11 CL1  UNL     1     157.386 155.031 162.334  0.00  0.00    +0.000 Cl
ATOM     12  C1  UNL     1     159.010 155.214 162.971  0.00  0.00    +0.000 A 
ATOM     13  C2  UNL     1     159.193 155.954 164.123  0.00  0.00    +0.000 A 
ATOM     14  C3  UNL     1     160.494 156.063 164.576  0.00  0.00    +0.000 A 
ATOM     15  C4  UNL     1     161.556 155.451 163.899  0.00  0.00    +0.000 A 
ATOM     16  C5  UNL     1     161.336 154.719 162.753  0.00  0.00    +0.000 A 
ATOM     17  C6  UNL     1     160.045 154.609 162.298  0.00  0.00    +0.000 A 
ATOM     18  F1  UNL     1     160.719 156.774 165.687  0.00  0.00    +0.000 F 
ENDBRANCH   1  13
BRANCH   8  19
ATOM     19  C11 UNL     1     156.386 157.218 168.038  0.00  0.00    +0.000 A 
ATOM     20  C12 UNL     1     155.248 157.238 168.776  0.00  0.00    +0.000 A 
ATOM     21  C13 UNL     1     155.254 157.722 170.089  0.00  0.00    +0.000 A 
ATOM     22  C14 UNL     1     156.434 158.182 170.636  0.00  0.00    +0.000 A 
ATOM     23 CL2  UNL     1     156.452 158.790 172.280  0.00  0.00    +0.000 Cl
ATOM     24  C15 UNL     1     157.593 158.176 169.922  0.00  0.00    +0.000 A 
ATOM     25  C16 UNL     1     157.559 157.693 168.631  0.00  0.00    +0.000 A 
ENDBRANCH   8  19
TORSDOF 2
ENDMDL
