MODEL 1
REMARK VINA RESULT:      -4.7      0.000      0.000
REMARK  Name = ./3D_structures\o38_MMV056052_3D.pdb
REMARK  2 active torsions:
REMARK  status: ('A' for Active; 'I' for Inactive)
REMARK    1  A    between atoms: C1_2  and  N2_14
REMARK    2  A    between atoms: C2_3  and  C3_4
REMARK                            x       y       z     vdW  Elec       q    Type
REMARK                         _______ _______ _______ _____ _____    ______ ____
ROOT
ATOM      1  S1  UNL     1     159.974 143.976 168.543  0.00  0.00    +0.000 S 
ATOM      2  C1  UNL     1     160.174 144.514 170.222  0.00  0.00    +0.000 A 
ATOM      3  C2  UNL     1     161.223 143.831 170.714  0.00  0.00    +0.000 A 
ATOM      4  C4  UNL     1     161.832 142.960 169.873  0.00  0.00    +0.000 A 
ATOM      5  C5  UNL     1     161.346 142.844 168.619  0.00  0.00    +0.000 A 
ATOM      6  C6  UNL     1     161.735 142.009 167.428  0.00  0.00    +0.000 C 
ATOM      7  C7  UNL     1     161.775 140.579 167.840  0.00  0.00    +0.000 C 
ATOM      8  C8  UNL     1     162.964 140.247 168.712  0.00  0.00    +0.000 C 
ATOM      9  C9  UNL     1     163.705 141.461 169.163  0.00  0.00    +0.000 C 
ATOM     10  C10 UNL     1     163.025 142.149 170.322  0.00  0.00    +0.000 C 
ENDROOT
BRANCH   3  11
ATOM     11  C3  UNL     1     161.642 144.054 172.111  0.00  0.00    +0.000 C 
ATOM     12  O1  UNL     1     162.340 145.091 172.359  0.00  0.00    +0.000 OA
ATOM     13  N1  UNL     1     161.328 143.204 173.194  0.00  0.00    +0.000 N 
ATOM     14  H1  UNL     1     160.422 143.230 173.675  0.00  0.00    +0.000 HD
ATOM     15  H2  UNL     1     162.046 142.523 173.534  0.00  0.00    +0.000 HD
ENDBRANCH   3  11
BRANCH   2  16
ATOM     16  N2  UNL     1     159.321 145.504 170.856  0.00  0.00    +0.000 N 
ATOM     17  H13 UNL     1     159.734 146.184 171.515  0.00  0.00    +0.000 HD
ATOM     18  H14 UNL     1     158.307 145.531 170.651  0.00  0.00    +0.000 HD
ENDBRANCH   2  16
TORSDOF 2
ENDMDL
MODEL 2
REMARK VINA RESULT:      -4.5     15.823     17.338
REMARK  Name = ./3D_structures\o38_MMV056052_3D.pdb
REMARK  2 active torsions:
REMARK  status: ('A' for Active; 'I' for Inactive)
REMARK    1  A    between atoms: C1_2  and  N2_14
REMARK    2  A    between atoms: C2_3  and  C3_4
REMARK                            x       y       z     vdW  Elec       q    Type
REMARK                         _______ _______ _______ _____ _____    ______ ____
ROOT
ATOM      1  S1  UNL     1     146.382 154.421 168.108  0.00  0.00    +0.000 S 
ATOM      2  C1  UNL     1     147.188 153.226 167.073  0.00  0.00    +0.000 A 
ATOM      3  C2  UNL     1     148.084 152.595 167.854  0.00  0.00    +0.000 A 
ATOM      4  C4  UNL     1     148.150 152.992 169.149  0.00  0.00    +0.000 A 
ATOM      5  C5  UNL     1     147.324 153.979 169.553  0.00  0.00    +0.000 A 
ATOM      6  C6  UNL     1     147.107 154.679 170.869  0.00  0.00    +0.000 C 
ATOM      7  C7  UNL     1     148.415 155.198 171.354  0.00  0.00    +0.000 C 
ATOM      8  C8  UNL     1     149.334 154.110 171.858  0.00  0.00    +0.000 C 
ATOM      9  C9  UNL     1     148.834 152.740 171.542  0.00  0.00    +0.000 C 
ATOM     10  C10 UNL     1     149.116 152.343 170.113  0.00  0.00    +0.000 C 
ENDROOT
BRANCH   3  11
ATOM     11  C3  UNL     1     148.930 151.534 167.276  0.00  0.00    +0.000 C 
ATOM     12  O1  UNL     1     148.350 150.481 166.853  0.00  0.00    +0.000 OA
ATOM     13  N1  UNL     1     150.335 151.598 167.154  0.00  0.00    +0.000 N 
ATOM     14  H1  UNL     1     150.804 152.106 166.395  0.00  0.00    +0.000 HD
ATOM     15  H2  UNL     1     150.932 151.103 167.856  0.00  0.00    +0.000 HD
ENDBRANCH   3  11
BRANCH   2  16
ATOM     16  N2  UNL     1     146.877 153.038 165.667  0.00  0.00    +0.000 N 
ATOM     17  H13 UNL     1     147.621 152.738 165.017  0.00  0.00    +0.000 HD
ATOM     18  H14 UNL     1     145.917 153.203 165.317  0.00  0.00    +0.000 HD
ENDBRANCH   2  16
TORSDOF 2
ENDMDL
MODEL 3
REMARK VINA RESULT:      -4.4     15.312     15.906
REMARK  Name = ./3D_structures\o38_MMV056052_3D.pdb
REMARK  2 active torsions:
REMARK  status: ('A' for Active; 'I' for Inactive)
REMARK    1  A    between atoms: C1_2  and  N2_14
REMARK    2  A    between atoms: C2_3  and  C3_4
REMARK                            x       y       z     vdW  Elec       q    Type
REMARK                         _______ _______ _______ _____ _____    ______ ____
ROOT
ATOM      1  S1  UNL     1     155.981 157.384 167.028  0.00  0.00    +0.000 S 
ATOM      2  C1  UNL     1     155.479 157.479 168.727  0.00  0.00    +0.000 A 
ATOM      3  C2  UNL     1     156.512 158.025 169.395  0.00  0.00    +0.000 A 
ATOM      4  C4  UNL     1     157.607 158.349 168.665  0.00  0.00    +0.000 A 
ATOM      5  C5  UNL     1     157.581 158.101 167.338  0.00  0.00    +0.000 A 
ATOM      6  C6  UNL     1     158.572 158.310 166.223  0.00  0.00    +0.000 C 
ATOM      7  C7  UNL     1     159.857 157.659 166.599  0.00  0.00    +0.000 C 
ATOM      8  C8  UNL     1     160.608 158.409 167.675  0.00  0.00    +0.000 C 
ATOM      9  C9  UNL     1     159.798 159.499 168.291  0.00  0.00    +0.000 C 
ATOM     10  C10 UNL     1     158.819 158.976 169.315  0.00  0.00    +0.000 C 
ENDROOT
BRANCH   3  11
ATOM     11  C3  UNL     1     156.404 158.233 170.851  0.00  0.00    +0.000 C 
ATOM     12  O1  UNL     1     156.466 157.203 171.600  0.00  0.00    +0.000 OA
ATOM     13  N1  UNL     1     156.240 159.487 171.478  0.00  0.00    +0.000 N 
ATOM     14  H1  UNL     1     157.023 160.130 171.649  0.00  0.00    +0.000 HD
ATOM     15  H2  UNL     1     155.287 159.779 171.795  0.00  0.00    +0.000 HD
ENDBRANCH   3  11
BRANCH   2  16
ATOM     16  N2  UNL     1     154.185 157.029 169.210  0.00  0.00    +0.000 N 
ATOM     17  H13 UNL     1     153.453 157.725 169.427  0.00  0.00    +0.000 HD
ATOM     18  H14 UNL     1     153.996 156.019 169.335  0.00  0.00    +0.000 HD
ENDBRANCH   2  16
TORSDOF 2
ENDMDL
MODEL 4
REMARK VINA RESULT:      -4.4     15.543     16.825
REMARK  Name = ./3D_structures\o38_MMV056052_3D.pdb
REMARK  2 active torsions:
REMARK  status: ('A' for Active; 'I' for Inactive)
REMARK    1  A    between atoms: C1_2  and  N2_14
REMARK    2  A    between atoms: C2_3  and  C3_4
REMARK                            x       y       z     vdW  Elec       q    Type
REMARK                         _______ _______ _______ _____ _____    ______ ____
ROOT
ATOM      1  S1  UNL     1     156.564 159.629 171.528  0.00  0.00    +0.000 S 
ATOM      2  C1  UNL     1     154.823 159.513 171.207  0.00  0.00    +0.000 A 
ATOM      3  C2  UNL     1     154.693 158.741 170.112  0.00  0.00    +0.000 A 
ATOM      4  C4  UNL     1     155.837 158.271 169.559  0.00  0.00    +0.000 A 
ATOM      5  C5  UNL     1     157.008 158.608 170.138  0.00  0.00    +0.000 A 
ATOM      6  C6  UNL     1     158.449 158.296 169.829  0.00  0.00    +0.000 C 
ATOM      7  C7  UNL     1     158.724 158.671 168.415  0.00  0.00    +0.000 C 
ATOM      8  C8  UNL     1     158.098 157.723 167.418  0.00  0.00    +0.000 C 
ATOM      9  C9  UNL     1     157.149 156.763 168.053  0.00  0.00    +0.000 C 
ATOM     10  C10 UNL     1     155.803 157.387 168.333  0.00  0.00    +0.000 C 
ENDROOT
BRANCH   3  11
ATOM     11  C3  UNL     1     153.346 158.458 169.581  0.00  0.00    +0.000 C 
ATOM     12  O1  UNL     1     152.757 159.390 168.940  0.00  0.00    +0.000 OA
ATOM     13  N1  UNL     1     152.661 157.233 169.727  0.00  0.00    +0.000 N 
ATOM     14  H1  UNL     1     152.847 156.418 169.130  0.00  0.00    +0.000 HD
ATOM     15  H2  UNL     1     151.925 157.144 170.464  0.00  0.00    +0.000 HD
ENDBRANCH   3  11
BRANCH   2  16
ATOM     16  N2  UNL     1     153.810 160.161 172.021  0.00  0.00    +0.000 N 
ATOM     17  H13 UNL     1     153.059 159.593 172.445  0.00  0.00    +0.000 HD
ATOM     18  H14 UNL     1     153.838 161.184 172.176  0.00  0.00    +0.000 HD
ENDBRANCH   2  16
TORSDOF 2
ENDMDL
MODEL 5
REMARK VINA RESULT:      -4.4     14.775     15.635
REMARK  Name = ./3D_structures\o38_MMV056052_3D.pdb
REMARK  2 active torsions:
REMARK  status: ('A' for Active; 'I' for Inactive)
REMARK    1  A    between atoms: C1_2  and  N2_14
REMARK    2  A    between atoms: C2_3  and  C3_4
REMARK                            x       y       z     vdW  Elec       q    Type
REMARK                         _______ _______ _______ _____ _____    ______ ____
ROOT
ATOM      1  S1  UNL     1     154.918 157.567 168.062  0.00  0.00    +0.000 S 
ATOM      2  C1  UNL     1     155.871 158.274 169.382  0.00  0.00    +0.000 A 
ATOM      3  C2  UNL     1     157.141 158.333 168.940  0.00  0.00    +0.000 A 
ATOM      4  C4  UNL     1     157.372 157.874 167.686  0.00  0.00    +0.000 A 
ATOM      5  C5  UNL     1     156.324 157.396 166.982  0.00  0.00    +0.000 A 
ATOM      6  C6  UNL     1     156.180 156.813 165.601  0.00  0.00    +0.000 C 
ATOM      7  C7  UNL     1     157.145 155.689 165.456  0.00  0.00    +0.000 C 
ATOM      8  C8  UNL     1     158.578 156.150 165.327  0.00  0.00    +0.000 C 
ATOM      9  C9  UNL     1     158.742 157.606 165.610  0.00  0.00    +0.000 C 
ATOM     10  C10 UNL     1     158.760 157.903 167.090  0.00  0.00    +0.000 C 
ENDROOT
BRANCH   3  11
ATOM     11  C3  UNL     1     158.191 158.876 169.823  0.00  0.00    +0.000 C 
ATOM     12  O1  UNL     1     158.529 158.177 170.835  0.00  0.00    +0.000 OA
ATOM     13  N1  UNL     1     158.850 160.109 169.631  0.00  0.00    +0.000 N 
ATOM     14  H1  UNL     1     159.628 160.226 168.972  0.00  0.00    +0.000 HD
ATOM     15  H2  UNL     1     158.547 160.942 170.187  0.00  0.00    +0.000 HD
ENDBRANCH   3  11
BRANCH   2  16
ATOM     16  N2  UNL     1     155.303 158.679 170.656  0.00  0.00    +0.000 N 
ATOM     17  H13 UNL     1     155.932 158.900 171.446  0.00  0.00    +0.000 HD
ATOM     18  H14 UNL     1     154.278 158.747 170.775  0.00  0.00    +0.000 HD
ENDBRANCH   2  16
TORSDOF 2
ENDMDL
MODEL 6
REMARK VINA RESULT:      -4.3     15.331     16.152
REMARK  Name = ./3D_structures\o38_MMV056052_3D.pdb
REMARK  2 active torsions:
REMARK  status: ('A' for Active; 'I' for Inactive)
REMARK    1  A    between atoms: C1_2  and  N2_14
REMARK    2  A    between atoms: C2_3  and  C3_4
REMARK                            x       y       z     vdW  Elec       q    Type
REMARK                         _______ _______ _______ _____ _____    ______ ____
ROOT
ATOM      1  S1  UNL     1     156.894 156.785 166.996  0.00  0.00    +0.000 S 
ATOM      2  C1  UNL     1     158.481 157.457 166.572  0.00  0.00    +0.000 A 
ATOM      3  C2  UNL     1     158.918 158.110 167.664  0.00  0.00    +0.000 A 
ATOM      4  C4  UNL     1     158.103 158.100 168.747  0.00  0.00    +0.000 A 
ATOM      5  C5  UNL     1     156.927 157.443 168.651  0.00  0.00    +0.000 A 
ATOM      6  C6  UNL     1     155.784 157.214 169.604  0.00  0.00    +0.000 C 
ATOM      7  C7  UNL     1     155.322 158.531 170.120  0.00  0.00    +0.000 C 
ATOM      8  C8  UNL     1     156.283 159.151 171.108  0.00  0.00    +0.000 C 
ATOM      9  C9  UNL     1     157.588 158.431 171.173  0.00  0.00    +0.000 C 
ATOM     10  C10 UNL     1     158.501 158.795 170.028  0.00  0.00    +0.000 C 
ENDROOT
BRANCH   3  11
ATOM     11  C3  UNL     1     160.225 158.792 167.626  0.00  0.00    +0.000 C 
ATOM     12  O1  UNL     1     161.271 158.064 167.636  0.00  0.00    +0.000 OA
ATOM     13  N1  UNL     1     160.405 160.192 167.579  0.00  0.00    +0.000 N 
ATOM     14  H1  UNL     1     160.324 160.733 166.710  0.00  0.00    +0.000 HD
ATOM     15  H2  UNL     1     160.639 160.707 168.458  0.00  0.00    +0.000 HD
ENDBRANCH   3  11
BRANCH   2  16
ATOM     16  N2  UNL     1     159.106 157.284 165.272  0.00  0.00    +0.000 N 
ATOM     17  H13 UNL     1     159.145 158.081 164.617  0.00  0.00    +0.000 HD
ATOM     18  H14 UNL     1     159.511 156.370 165.004  0.00  0.00    +0.000 HD
ENDBRANCH   2  16
TORSDOF 2
ENDMDL
MODEL 7
REMARK VINA RESULT:      -4.3     25.254     26.822
REMARK  Name = ./3D_structures\o38_MMV056052_3D.pdb
REMARK  2 active torsions:
REMARK  status: ('A' for Active; 'I' for Inactive)
REMARK    1  A    between atoms: C1_2  and  N2_14
REMARK    2  A    between atoms: C2_3  and  C3_4
REMARK                            x       y       z     vdW  Elec       q    Type
REMARK                         _______ _______ _______ _____ _____    ______ ____
ROOT
ATOM      1  S1  UNL     1     145.911 166.782 165.793  0.00  0.00    +0.000 S 
ATOM      2  C1  UNL     1     144.629 165.571 165.993  0.00  0.00    +0.000 A 
ATOM      3  C2  UNL     1     145.204 164.509 166.585  0.00  0.00    +0.000 A 
ATOM      4  C4  UNL     1     146.526 164.610 166.868  0.00  0.00    +0.000 A 
ATOM      5  C5  UNL     1     147.160 165.754 166.537  0.00  0.00    +0.000 A 
ATOM      6  C6  UNL     1     148.581 166.234 166.679  0.00  0.00    +0.000 C 
ATOM      7  C7  UNL     1     149.487 165.229 166.059  0.00  0.00    +0.000 C 
ATOM      8  C8  UNL     1     149.621 163.966 166.879  0.00  0.00    +0.000 C 
ATOM      9  C9  UNL     1     148.641 163.902 168.002  0.00  0.00    +0.000 C 
ATOM     10  C10 UNL     1     147.268 163.478 167.540  0.00  0.00    +0.000 C 
ENDROOT
BRANCH   3  11
ATOM     11  C3  UNL     1     144.389 163.316 166.884  0.00  0.00    +0.000 C 
ATOM     12  O1  UNL     1     144.084 162.551 165.911  0.00  0.00    +0.000 OA
ATOM     13  N1  UNL     1     143.923 162.957 168.167  0.00  0.00    +0.000 N 
ATOM     14  H1  UNL     1     144.513 162.478 168.859  0.00  0.00    +0.000 HD
ATOM     15  H2  UNL     1     142.935 163.175 168.431  0.00  0.00    +0.000 HD
ENDBRANCH   3  11
BRANCH   2  16
ATOM     16  N2  UNL     1     143.256 165.776 165.568  0.00  0.00    +0.000 N 
ATOM     17  H13 UNL     1     142.971 165.497 164.615  0.00  0.00    +0.000 HD
ATOM     18  H14 UNL     1     142.565 166.196 166.214  0.00  0.00    +0.000 HD
ENDBRANCH   2  16
TORSDOF 2
ENDMDL
MODEL 8
REMARK VINA RESULT:      -4.2     14.395     15.668
REMARK  Name = ./3D_structures\o38_MMV056052_3D.pdb
REMARK  2 active torsions:
REMARK  status: ('A' for Active; 'I' for Inactive)
REMARK    1  A    between atoms: C1_2  and  N2_14
REMARK    2  A    between atoms: C2_3  and  C3_4
REMARK                            x       y       z     vdW  Elec       q    Type
REMARK                         _______ _______ _______ _____ _____    ______ ____
ROOT
ATOM      1  S1  UNL     1     160.236 158.642 166.498  0.00  0.00    +0.000 S 
ATOM      2  C1  UNL     1     159.741 157.308 165.439  0.00  0.00    +0.000 A 
ATOM      3  C2  UNL     1     158.603 156.815 165.961  0.00  0.00    +0.000 A 
ATOM      4  C4  UNL     1     158.141 157.412 167.087  0.00  0.00    +0.000 A 
ATOM      5  C5  UNL     1     158.848 158.443 167.595  0.00  0.00    +0.000 A 
ATOM      6  C6  UNL     1     158.668 159.334 168.796  0.00  0.00    +0.000 C 
ATOM      7  C7  UNL     1     158.520 158.480 170.005  0.00  0.00    +0.000 C 
ATOM      8  C8  UNL     1     157.182 157.781 170.076  0.00  0.00    +0.000 C 
ATOM      9  C9  UNL     1     156.398 157.906 168.813  0.00  0.00    +0.000 C 
ATOM     10  C10 UNL     1     156.867 156.942 167.750  0.00  0.00    +0.000 C 
ENDROOT
BRANCH   3  11
ATOM     11  C3  UNL     1     157.936 155.676 165.302  0.00  0.00    +0.000 C 
ATOM     12  O1  UNL     1     158.582 154.579 165.226  0.00  0.00    +0.000 OA
ATOM     13  N1  UNL     1     156.638 155.709 164.751  0.00  0.00    +0.000 N 
ATOM     14  H1  UNL     1     155.789 155.614 165.321  0.00  0.00    +0.000 HD
ATOM     15  H2  UNL     1     156.524 155.824 163.718  0.00  0.00    +0.000 HD
ENDBRANCH   3  11
BRANCH   2  16
ATOM     16  N2  UNL     1     160.483 156.898 164.260  0.00  0.00    +0.000 N 
ATOM     17  H13 UNL     1     160.669 157.586 163.511  0.00  0.00    +0.000 HD
ATOM     18  H14 UNL     1     160.825 155.926 164.168  0.00  0.00    +0.000 HD
ENDBRANCH   2  16
TORSDOF 2
ENDMDL
MODEL 9
REMARK VINA RESULT:      -4.1     16.049     17.338
REMARK  Name = ./3D_structures\o38_MMV056052_3D.pdb
REMARK  2 active torsions:
REMARK  status: ('A' for Active; 'I' for Inactive)
REMARK    1  A    between atoms: C1_2  and  N2_14
REMARK    2  A    between atoms: C2_3  and  C3_4
REMARK                            x       y       z     vdW  Elec       q    Type
REMARK                         _______ _______ _______ _____ _____    ______ ____
ROOT
ATOM      1  S1  UNL     1     155.646 159.899 172.033  0.00  0.00    +0.000 S 
ATOM      2  C1  UNL     1     154.037 159.883 171.287  0.00  0.00    +0.000 A 
ATOM      3  C2  UNL     1     154.141 159.123 170.181  0.00  0.00    +0.000 A 
ATOM      4  C4  UNL     1     155.360 158.589 169.922  0.00  0.00    +0.000 A 
ATOM      5  C5  UNL     1     156.367 158.858 170.780  0.00  0.00    +0.000 A 
ATOM      6  C6  UNL     1     157.820 158.465 170.833  0.00  0.00    +0.000 C 
ATOM      7  C7  UNL     1     158.458 158.827 169.539  0.00  0.00    +0.000 C 
ATOM      8  C8  UNL     1     158.049 157.920 168.402  0.00  0.00    +0.000 C 
ATOM      9  C9  UNL     1     156.922 157.014 168.764  0.00  0.00    +0.000 C 
ATOM     10  C10 UNL     1     155.585 157.713 168.711  0.00  0.00    +0.000 C 
ENDROOT
BRANCH   3  11
ATOM     11  C3  UNL     1     152.956 158.919 169.327  0.00  0.00    +0.000 C 
ATOM     12  O1  UNL     1     152.120 158.024 169.681  0.00  0.00    +0.000 OA
ATOM     13  N1  UNL     1     152.678 159.641 168.146  0.00  0.00    +0.000 N 
ATOM     14  H1  UNL     1     152.260 160.579 168.154  0.00  0.00    +0.000 HD
ATOM     15  H2  UNL     1     152.894 159.208 167.219  0.00  0.00    +0.000 HD
ENDBRANCH   3  11
BRANCH   2  16
ATOM     16  N2  UNL     1     152.889 160.586 171.834  0.00  0.00    +0.000 N 
ATOM     17  H13 UNL     1     153.038 161.367 172.493  0.00  0.00    +0.000 HD
ATOM     18  H14 UNL     1     151.929 160.308 171.566  0.00  0.00    +0.000 HD
ENDBRANCH   2  16
TORSDOF 2
ENDMDL
