MODEL 1
REMARK VINA RESULT:      -5.7      0.000      0.000
REMARK  Name = ./3D_structures\o40_MMV001961_3D.pdb
REMARK  6 active torsions:
REMARK  status: ('A' for Active; 'I' for Inactive)
REMARK    1  A    between atoms: O1_1  and  C1_2
REMARK    2  A    between atoms: O1_1  and  C7_14
REMARK    3  A    between atoms: C1_2  and  N1_3
REMARK    4  A    between atoms: C4_8  and  O2_12
REMARK    5  A    between atoms: C7_14  and  C8_15
REMARK    6  A    between atoms: C8_15  and  O3_16
REMARK                            x       y       z     vdW  Elec       q    Type
REMARK                         _______ _______ _______ _____ _____    ______ ____
ROOT
ATOM      1  N1  UNL     1     144.056 164.251 165.504  0.00  0.00    +0.000 N 
ATOM      2  C2  UNL     1     145.010 165.180 165.612  0.00  0.00    +0.000 A 
ATOM      3  N2  UNL     1     146.367 165.128 165.734  0.00  0.00    +0.000 NA
ATOM      4  C3  UNL     1     147.128 166.225 165.829  0.00  0.00    +0.000 C 
ATOM      5  N3  UNL     1     146.533 167.441 165.803  0.00  0.00    +0.000 NA
ATOM      6  C4  UNL     1     145.205 167.589 165.687  0.00  0.00    +0.000 C 
ATOM      7  C5  UNL     1     144.441 166.445 165.591  0.00  0.00    +0.000 A 
ATOM      8  N4  UNL     1     143.120 166.255 165.467  0.00  0.00    +0.000 NA
ATOM      9  C6  UNL     1     142.889 164.911 165.414  0.00  0.00    +0.000 A 
ATOM     10  N5  UNL     1     148.547 166.160 165.955  0.00  0.00    +0.000 N 
ATOM     11  H5  UNL     1     149.027 165.857 166.825  0.00  0.00    +0.000 HD
ATOM     12  H6  UNL     1     149.119 166.441 165.105  0.00  0.00    +0.000 HD
ENDROOT
BRANCH   6  13
ATOM     13  O2  UNL     1     144.636 168.853 165.665  0.00  0.00    +0.000 OA
ATOM     14  H4  UNL     1     144.872 169.526 164.953  0.00  0.00    +0.000 HD
ENDBRANCH   6  13
BRANCH   1  15
ATOM     15  C1  UNL     1     144.205 162.830 165.484  0.00  0.00    +0.000 C 
BRANCH  15  16
ATOM     16  O1  UNL     1     145.101 162.392 164.489  0.00  0.00    +0.000 OA
BRANCH  16  17
ATOM     17  C7  UNL     1     144.300 162.041 163.393  0.00  0.00    +0.000 C 
BRANCH  17  18
ATOM     18  C8  UNL     1     144.428 160.557 163.086  0.00  0.00    +0.000 C 
BRANCH  18  19
ATOM     19  O3  UNL     1     145.766 160.215 162.878  0.00  0.00    +0.000 OA
ATOM     20  H11 UNL     1     146.110 159.644 163.629  0.00  0.00    +0.000 HD
ENDBRANCH  18  19
ENDBRANCH  17  18
ENDBRANCH  16  17
ENDBRANCH  15  16
ENDBRANCH   1  15
TORSDOF 6
ENDMDL
MODEL 2
REMARK VINA RESULT:      -5.6      2.838      4.579
REMARK  Name = ./3D_structures\o40_MMV001961_3D.pdb
REMARK  6 active torsions:
REMARK  status: ('A' for Active; 'I' for Inactive)
REMARK    1  A    between atoms: O1_1  and  C1_2
REMARK    2  A    between atoms: O1_1  and  C7_14
REMARK    3  A    between atoms: C1_2  and  N1_3
REMARK    4  A    between atoms: C4_8  and  O2_12
REMARK    5  A    between atoms: C7_14  and  C8_15
REMARK    6  A    between atoms: C8_15  and  O3_16
REMARK                            x       y       z     vdW  Elec       q    Type
REMARK                         _______ _______ _______ _____ _____    ______ ____
ROOT
ATOM      1  N1  UNL     1     146.820 164.411 166.732  0.00  0.00    +0.000 N 
ATOM      2  C2  UNL     1     145.776 165.136 166.318  0.00  0.00    +0.000 A 
ATOM      3  N2  UNL     1     144.464 164.849 166.085  0.00  0.00    +0.000 NA
ATOM      4  C3  UNL     1     143.587 165.768 165.663  0.00  0.00    +0.000 C 
ATOM      5  N3  UNL     1     144.012 167.037 165.457  0.00  0.00    +0.000 NA
ATOM      6  C4  UNL     1     145.285 167.410 165.660  0.00  0.00    +0.000 C 
ATOM      7  C5  UNL     1     146.171 166.447 166.094  0.00  0.00    +0.000 A 
ATOM      8  N4  UNL     1     147.479 166.495 166.384  0.00  0.00    +0.000 NA
ATOM      9  C6  UNL     1     147.871 165.246 166.774  0.00  0.00    +0.000 A 
ATOM     10  N5  UNL     1     142.215 165.460 165.422  0.00  0.00    +0.000 N 
ATOM     11  H5  UNL     1     141.893 164.903 164.606  0.00  0.00    +0.000 HD
ATOM     12  H6  UNL     1     141.509 165.828 166.124  0.00  0.00    +0.000 HD
ENDROOT
BRANCH   6  13
ATOM     13  O2  UNL     1     145.680 168.720 165.437  0.00  0.00    +0.000 OA
ATOM     14  H4  UNL     1     145.932 169.046 164.517  0.00  0.00    +0.000 HD
ENDBRANCH   6  13
BRANCH   1  15
ATOM     15  C1  UNL     1     146.853 163.024 167.072  0.00  0.00    +0.000 C 
BRANCH  15  16
ATOM     16  O1  UNL     1     147.264 162.801 168.401  0.00  0.00    +0.000 OA
BRANCH  16  17
ATOM     17  C7  UNL     1     146.123 163.023 169.186  0.00  0.00    +0.000 C 
BRANCH  17  18
ATOM     18  C8  UNL     1     146.394 164.083 170.242  0.00  0.00    +0.000 C 
BRANCH  18  19
ATOM     19  O3  UNL     1     145.770 165.284 169.899  0.00  0.00    +0.000 OA
ATOM     20  H11 UNL     1     144.848 165.118 169.537  0.00  0.00    +0.000 HD
ENDBRANCH  18  19
ENDBRANCH  17  18
ENDBRANCH  16  17
ENDBRANCH  15  16
ENDBRANCH   1  15
TORSDOF 6
ENDMDL
MODEL 3
REMARK VINA RESULT:      -5.4      1.680      2.100
REMARK  Name = ./3D_structures\o40_MMV001961_3D.pdb
REMARK  6 active torsions:
REMARK  status: ('A' for Active; 'I' for Inactive)
REMARK    1  A    between atoms: O1_1  and  C1_2
REMARK    2  A    between atoms: O1_1  and  C7_14
REMARK    3  A    between atoms: C1_2  and  N1_3
REMARK    4  A    between atoms: C4_8  and  O2_12
REMARK    5  A    between atoms: C7_14  and  C8_15
REMARK    6  A    between atoms: C8_15  and  O3_16
REMARK                            x       y       z     vdW  Elec       q    Type
REMARK                         _______ _______ _______ _____ _____    ______ ____
ROOT
ATOM      1  N1  UNL     1     144.010 164.275 165.498  0.00  0.00    +0.000 N 
ATOM      2  C2  UNL     1     145.038 165.121 165.607  0.00  0.00    +0.000 A 
ATOM      3  N2  UNL     1     146.386 164.955 165.730  0.00  0.00    +0.000 NA
ATOM      4  C3  UNL     1     147.236 165.984 165.827  0.00  0.00    +0.000 C 
ATOM      5  N3  UNL     1     146.745 167.247 165.802  0.00  0.00    +0.000 NA
ATOM      6  C4  UNL     1     145.434 167.505 165.685  0.00  0.00    +0.000 C 
ATOM      7  C5  UNL     1     144.577 166.429 165.587  0.00  0.00    +0.000 A 
ATOM      8  N4  UNL     1     143.245 166.350 165.461  0.00  0.00    +0.000 NA
ATOM      9  C6  UNL     1     142.903 165.030 165.407  0.00  0.00    +0.000 A 
ATOM     10  N5  UNL     1     148.645 165.802 165.954  0.00  0.00    +0.000 N 
ATOM     11  H5  UNL     1     149.097 165.458 166.824  0.00  0.00    +0.000 HD
ATOM     12  H6  UNL     1     149.239 166.034 165.105  0.00  0.00    +0.000 HD
ENDROOT
BRANCH   6  13
ATOM     13  O2  UNL     1     144.973 168.812 165.664  0.00  0.00    +0.000 OA
ATOM     14  H4  UNL     1     145.168 169.453 166.417  0.00  0.00    +0.000 HD
ENDBRANCH   6  13
BRANCH   1  15
ATOM     15  C1  UNL     1     144.039 162.846 165.476  0.00  0.00    +0.000 C 
BRANCH  15  16
ATOM     16  O1  UNL     1     144.088 162.284 166.767  0.00  0.00    +0.000 OA
BRANCH  16  17
ATOM     17  C7  UNL     1     145.175 161.399 166.747  0.00  0.00    +0.000 C 
BRANCH  17  18
ATOM     18  C8  UNL     1     146.254 161.849 167.719  0.00  0.00    +0.000 C 
BRANCH  18  19
ATOM     19  O3  UNL     1     147.280 162.507 167.038  0.00  0.00    +0.000 OA
ATOM     20  H11 UNL     1     148.006 161.865 166.777  0.00  0.00    +0.000 HD
ENDBRANCH  18  19
ENDBRANCH  17  18
ENDBRANCH  16  17
ENDBRANCH  15  16
ENDBRANCH   1  15
TORSDOF 6
ENDMDL
MODEL 4
REMARK VINA RESULT:      -5.1      2.868      4.733
REMARK  Name = ./3D_structures\o40_MMV001961_3D.pdb
REMARK  6 active torsions:
REMARK  status: ('A' for Active; 'I' for Inactive)
REMARK    1  A    between atoms: O1_1  and  C1_2
REMARK    2  A    between atoms: O1_1  and  C7_14
REMARK    3  A    between atoms: C1_2  and  N1_3
REMARK    4  A    between atoms: C4_8  and  O2_12
REMARK    5  A    between atoms: C7_14  and  C8_15
REMARK    6  A    between atoms: C8_15  and  O3_16
REMARK                            x       y       z     vdW  Elec       q    Type
REMARK                         _______ _______ _______ _____ _____    ______ ____
ROOT
ATOM      1  N1  UNL     1     146.720 164.339 166.654  0.00  0.00    +0.000 N 
ATOM      2  C2  UNL     1     145.855 165.282 166.271  0.00  0.00    +0.000 A 
ATOM      3  N2  UNL     1     145.939 166.636 166.130  0.00  0.00    +0.000 NA
ATOM      4  C3  UNL     1     144.909 167.386 165.720  0.00  0.00    +0.000 C 
ATOM      5  N3  UNL     1     143.731 166.783 165.430  0.00  0.00    +0.000 NA
ATOM      6  C4  UNL     1     143.557 165.457 165.541  0.00  0.00    +0.000 C 
ATOM      7  C5  UNL     1     144.632 164.705 165.965  0.00  0.00    +0.000 A 
ATOM      8  N4  UNL     1     144.781 163.389 166.172  0.00  0.00    +0.000 NA
ATOM      9  C6  UNL     1     146.060 163.170 166.594  0.00  0.00    +0.000 A 
ATOM     10  N5  UNL     1     145.006 168.801 165.575  0.00  0.00    +0.000 N 
ATOM     11  H5  UNL     1     145.048 169.454 166.383  0.00  0.00    +0.000 HD
ATOM     12  H6  UNL     1     145.035 169.183 164.585  0.00  0.00    +0.000 HD
ENDROOT
BRANCH   6  13
ATOM     13  O2  UNL     1     142.335 164.880 165.234  0.00  0.00    +0.000 OA
ATOM     14  H4  UNL     1     142.274 164.010 164.728  0.00  0.00    +0.000 HD
ENDBRANCH   6  13
BRANCH   1  15
ATOM     15  C1  UNL     1     148.082 164.498 167.054  0.00  0.00    +0.000 C 
BRANCH  15  16
ATOM     16  O1  UNL     1     148.338 163.965 168.333  0.00  0.00    +0.000 OA
BRANCH  16  17
ATOM     17  C7  UNL     1     148.069 165.008 169.232  0.00  0.00    +0.000 C 
BRANCH  17  18
ATOM     18  C8  UNL     1     146.907 164.646 170.143  0.00  0.00    +0.000 C 
BRANCH  18  19
ATOM     19  O3  UNL     1     145.802 165.457 169.871  0.00  0.00    +0.000 OA
ATOM     20  H11 UNL     1     145.769 165.701 168.897  0.00  0.00    +0.000 HD
ENDBRANCH  18  19
ENDBRANCH  17  18
ENDBRANCH  16  17
ENDBRANCH  15  16
ENDBRANCH   1  15
TORSDOF 6
ENDMDL
MODEL 5
REMARK VINA RESULT:      -5.0      3.760      5.140
REMARK  Name = ./3D_structures\o40_MMV001961_3D.pdb
REMARK  6 active torsions:
REMARK  status: ('A' for Active; 'I' for Inactive)
REMARK    1  A    between atoms: O1_1  and  C1_2
REMARK    2  A    between atoms: O1_1  and  C7_14
REMARK    3  A    between atoms: C1_2  and  N1_3
REMARK    4  A    between atoms: C4_8  and  O2_12
REMARK    5  A    between atoms: C7_14  and  C8_15
REMARK    6  A    between atoms: C8_15  and  O3_16
REMARK                            x       y       z     vdW  Elec       q    Type
REMARK                         _______ _______ _______ _____ _____    ______ ____
ROOT
ATOM      1  N1  UNL     1     146.354 164.306 168.372  0.00  0.00    +0.000 N 
ATOM      2  C2  UNL     1     147.555 164.887 168.450  0.00  0.00    +0.000 A 
ATOM      3  N2  UNL     1     148.420 165.390 167.524  0.00  0.00    +0.000 NA
ATOM      4  C3  UNL     1     149.596 165.937 167.855  0.00  0.00    +0.000 C 
ATOM      5  N3  UNL     1     149.948 165.998 169.161  0.00  0.00    +0.000 NA
ATOM      6  C4  UNL     1     149.161 165.528 170.140  0.00  0.00    +0.000 C 
ATOM      7  C5  UNL     1     147.954 164.969 169.776  0.00  0.00    +0.000 A 
ATOM      8  N4  UNL     1     146.963 164.423 170.496  0.00  0.00    +0.000 NA
ATOM      9  C6  UNL     1     145.987 164.019 169.632  0.00  0.00    +0.000 A 
ATOM     10  N5  UNL     1     150.495 166.461 166.880  0.00  0.00    +0.000 N 
ATOM     11  H5  UNL     1     151.052 165.861 166.240  0.00  0.00    +0.000 HD
ATOM     12  H6  UNL     1     150.582 167.517 166.824  0.00  0.00    +0.000 HD
ENDROOT
BRANCH   6  13
ATOM     13  O2  UNL     1     149.559 165.610 171.465  0.00  0.00    +0.000 OA
ATOM     14  H4  UNL     1     149.618 164.791 172.050  0.00  0.00    +0.000 HD
ENDBRANCH   6  13
BRANCH   1  15
ATOM     15  C1  UNL     1     145.581 164.028 167.203  0.00  0.00    +0.000 C 
BRANCH  15  16
ATOM     16  O1  UNL     1     144.637 165.036 166.924  0.00  0.00    +0.000 OA
BRANCH  16  17
ATOM     17  C7  UNL     1     144.954 165.498 165.638  0.00  0.00    +0.000 C 
BRANCH  17  18
ATOM     18  C8  UNL     1     145.615 166.865 165.703  0.00  0.00    +0.000 C 
BRANCH  18  19
ATOM     19  O3  UNL     1     146.951 166.780 165.304  0.00  0.00    +0.000 OA
ATOM     20  H11 UNL     1     147.162 165.863 164.953  0.00  0.00    +0.000 HD
ENDBRANCH  18  19
ENDBRANCH  17  18
ENDBRANCH  16  17
ENDBRANCH  15  16
ENDBRANCH   1  15
TORSDOF 6
ENDMDL
MODEL 6
REMARK VINA RESULT:      -4.8      3.162      4.490
REMARK  Name = ./3D_structures\o40_MMV001961_3D.pdb
REMARK  6 active torsions:
REMARK  status: ('A' for Active; 'I' for Inactive)
REMARK    1  A    between atoms: O1_1  and  C1_2
REMARK    2  A    between atoms: O1_1  and  C7_14
REMARK    3  A    between atoms: C1_2  and  N1_3
REMARK    4  A    between atoms: C4_8  and  O2_12
REMARK    5  A    between atoms: C7_14  and  C8_15
REMARK    6  A    between atoms: C8_15  and  O3_16
REMARK                            x       y       z     vdW  Elec       q    Type
REMARK                         _______ _______ _______ _____ _____    ______ ____
ROOT
ATOM      1  N1  UNL     1     147.122 164.713 166.555  0.00  0.00    +0.000 N 
ATOM      2  C2  UNL     1     145.964 165.293 166.227  0.00  0.00    +0.000 A 
ATOM      3  N2  UNL     1     144.690 164.830 166.070  0.00  0.00    +0.000 NA
ATOM      4  C3  UNL     1     143.669 165.625 165.727  0.00  0.00    +0.000 C 
ATOM      5  N3  UNL     1     143.902 166.944 165.525  0.00  0.00    +0.000 NA
ATOM      6  C4  UNL     1     145.123 167.486 165.656  0.00  0.00    +0.000 C 
ATOM      7  C5  UNL     1     146.159 166.649 166.010  0.00  0.00    +0.000 A 
ATOM      8  N4  UNL     1     147.464 166.873 166.218  0.00  0.00    +0.000 NA
ATOM      9  C6  UNL     1     148.049 165.685 166.551  0.00  0.00    +0.000 A 
ATOM     10  N5  UNL     1     142.341 165.134 165.566  0.00  0.00    +0.000 N 
ATOM     11  H5  UNL     1     142.044 164.550 164.759  0.00  0.00    +0.000 HD
ATOM     12  H6  UNL     1     141.638 165.390 166.319  0.00  0.00    +0.000 HD
ENDROOT
BRANCH   6  13
ATOM     13  O2  UNL     1     145.318 168.841 165.440  0.00  0.00    +0.000 OA
ATOM     14  H4  UNL     1     145.216 169.514 166.184  0.00  0.00    +0.000 HD
ENDBRANCH   6  13
BRANCH   1  15
ATOM     15  C1  UNL     1     147.368 163.339 166.860  0.00  0.00    +0.000 C 
BRANCH  15  16
ATOM     16  O1  UNL     1     148.650 163.124 167.403  0.00  0.00    +0.000 OA
BRANCH  16  17
ATOM     17  C7  UNL     1     148.629 161.813 167.901  0.00  0.00    +0.000 C 
BRANCH  17  18
ATOM     18  C8  UNL     1     149.999 161.415 168.425  0.00  0.00    +0.000 C 
BRANCH  18  19
ATOM     19  O3  UNL     1     149.880 160.748 169.646  0.00  0.00    +0.000 OA
ATOM     20  H11 UNL     1     148.944 160.819 170.003  0.00  0.00    +0.000 HD
ENDBRANCH  18  19
ENDBRANCH  17  18
ENDBRANCH  16  17
ENDBRANCH  15  16
ENDBRANCH   1  15
TORSDOF 6
ENDMDL
MODEL 7
REMARK VINA RESULT:      -4.7      3.321      6.139
REMARK  Name = ./3D_structures\o40_MMV001961_3D.pdb
REMARK  6 active torsions:
REMARK  status: ('A' for Active; 'I' for Inactive)
REMARK    1  A    between atoms: O1_1  and  C1_2
REMARK    2  A    between atoms: O1_1  and  C7_14
REMARK    3  A    between atoms: C1_2  and  N1_3
REMARK    4  A    between atoms: C4_8  and  O2_12
REMARK    5  A    between atoms: C7_14  and  C8_15
REMARK    6  A    between atoms: C8_15  and  O3_16
REMARK                            x       y       z     vdW  Elec       q    Type
REMARK                         _______ _______ _______ _____ _____    ______ ____
ROOT
ATOM      1  N1  UNL     1     146.829 164.134 167.970  0.00  0.00    +0.000 N 
ATOM      2  C2  UNL     1     146.200 163.013 167.606  0.00  0.00    +0.000 A 
ATOM      3  N2  UNL     1     145.837 162.486 166.402  0.00  0.00    +0.000 NA
ATOM      4  C3  UNL     1     145.197 161.315 166.288  0.00  0.00    +0.000 C 
ATOM      5  N3  UNL     1     144.896 160.620 167.411  0.00  0.00    +0.000 NA
ATOM      6  C4  UNL     1     145.213 161.062 168.637  0.00  0.00    +0.000 C 
ATOM      7  C5  UNL     1     145.872 162.270 168.730  0.00  0.00    +0.000 A 
ATOM      8  N4  UNL     1     146.319 162.971 169.781  0.00  0.00    +0.000 NA
ATOM      9  C6  UNL     1     146.904 164.111 169.311  0.00  0.00    +0.000 A 
ATOM     10  N5  UNL     1     144.822 160.770 165.025  0.00  0.00    +0.000 N 
ATOM     11  H5  UNL     1     144.046 161.152 164.450  0.00  0.00    +0.000 HD
ATOM     12  H6  UNL     1     145.377 159.935 164.677  0.00  0.00    +0.000 HD
ENDROOT
BRANCH   6  13
ATOM     13  O2  UNL     1     144.886 160.319 169.761  0.00  0.00    +0.000 OA
ATOM     14  H4  UNL     1     143.938 160.028 169.943  0.00  0.00    +0.000 HD
ENDBRANCH   6  13
BRANCH   1  15
ATOM     15  C1  UNL     1     147.337 165.175 167.133  0.00  0.00    +0.000 C 
BRANCH  15  16
ATOM     16  O1  UNL     1     146.520 166.322 167.136  0.00  0.00    +0.000 OA
BRANCH  16  17
ATOM     17  C7  UNL     1     146.301 166.629 165.785  0.00  0.00    +0.000 C 
BRANCH  17  18
ATOM     18  C8  UNL     1     144.958 167.316 165.600  0.00  0.00    +0.000 C 
BRANCH  18  19
ATOM     19  O3  UNL     1     145.103 168.702 165.685  0.00  0.00    +0.000 OA
ATOM     20  H11 UNL     1     144.541 169.076 166.429  0.00  0.00    +0.000 HD
ENDBRANCH  18  19
ENDBRANCH  17  18
ENDBRANCH  16  17
ENDBRANCH  15  16
ENDBRANCH   1  15
TORSDOF 6
ENDMDL
MODEL 8
REMARK VINA RESULT:      -4.7     13.183     14.847
REMARK  Name = ./3D_structures\o40_MMV001961_3D.pdb
REMARK  6 active torsions:
REMARK  status: ('A' for Active; 'I' for Inactive)
REMARK    1  A    between atoms: O1_1  and  C1_2
REMARK    2  A    between atoms: O1_1  and  C7_14
REMARK    3  A    between atoms: C1_2  and  N1_3
REMARK    4  A    between atoms: C4_8  and  O2_12
REMARK    5  A    between atoms: C7_14  and  C8_15
REMARK    6  A    between atoms: C8_15  and  O3_16
REMARK                            x       y       z     vdW  Elec       q    Type
REMARK                         _______ _______ _______ _____ _____    ______ ____
ROOT
ATOM      1  N1  UNL     1     158.436 158.278 167.791  0.00  0.00    +0.000 N 
ATOM      2  C2  UNL     1     157.319 158.006 168.471  0.00  0.00    +0.000 A 
ATOM      3  N2  UNL     1     156.052 157.663 168.101  0.00  0.00    +0.000 NA
ATOM      4  C3  UNL     1     155.076 157.435 168.988  0.00  0.00    +0.000 C 
ATOM      5  N3  UNL     1     155.350 157.546 170.310  0.00  0.00    +0.000 NA
ATOM      6  C4  UNL     1     156.568 157.879 170.765  0.00  0.00    +0.000 C 
ATOM      7  C5  UNL     1     157.557 158.110 169.833  0.00  0.00    +0.000 A 
ATOM      8  N4  UNL     1     158.847 158.451 169.958  0.00  0.00    +0.000 NA
ATOM      9  C6  UNL     1     159.381 158.553 168.706  0.00  0.00    +0.000 A 
ATOM     10  N5  UNL     1     153.754 157.076 168.593  0.00  0.00    +0.000 N 
ATOM     11  H5  UNL     1     153.087 157.748 168.163  0.00  0.00    +0.000 HD
ATOM     12  H6  UNL     1     153.459 156.069 168.756  0.00  0.00    +0.000 HD
ENDROOT
BRANCH   6  13
ATOM     13  O2  UNL     1     156.807 157.982 172.127  0.00  0.00    +0.000 OA
ATOM     14  H4  UNL     1     156.290 158.624 172.706  0.00  0.00    +0.000 HD
ENDBRANCH   6  13
BRANCH   1  15
ATOM     15  C1  UNL     1     158.631 158.286 166.376  0.00  0.00    +0.000 C 
BRANCH  15  16
ATOM     16  O1  UNL     1     158.935 157.010 165.862  0.00  0.00    +0.000 OA
BRANCH  16  17
ATOM     17  C7  UNL     1     158.054 156.820 164.788  0.00  0.00    +0.000 C 
BRANCH  17  18
ATOM     18  C8  UNL     1     157.071 155.700 165.090  0.00  0.00    +0.000 C 
BRANCH  18  19
ATOM     19  O3  UNL     1     155.838 156.226 165.482  0.00  0.00    +0.000 OA
ATOM     20  H11 UNL     1     155.796 157.213 165.302  0.00  0.00    +0.000 HD
ENDBRANCH  18  19
ENDBRANCH  17  18
ENDBRANCH  16  17
ENDBRANCH  15  16
ENDBRANCH   1  15
TORSDOF 6
ENDMDL
MODEL 9
REMARK VINA RESULT:      -4.5      2.184      2.582
REMARK  Name = ./3D_structures\o40_MMV001961_3D.pdb
REMARK  6 active torsions:
REMARK  status: ('A' for Active; 'I' for Inactive)
REMARK    1  A    between atoms: O1_1  and  C1_2
REMARK    2  A    between atoms: O1_1  and  C7_14
REMARK    3  A    between atoms: C1_2  and  N1_3
REMARK    4  A    between atoms: C4_8  and  O2_12
REMARK    5  A    between atoms: C7_14  and  C8_15
REMARK    6  A    between atoms: C8_15  and  O3_16
REMARK                            x       y       z     vdW  Elec       q    Type
REMARK                         _______ _______ _______ _____ _____    ______ ____
ROOT
ATOM      1  N1  UNL     1     144.336 162.823 165.367  0.00  0.00    +0.000 N 
ATOM      2  C2  UNL     1     145.107 163.768 165.912  0.00  0.00    +0.000 A 
ATOM      3  N2  UNL     1     145.991 164.672 165.402  0.00  0.00    +0.000 NA
ATOM      4  C3  UNL     1     146.663 165.540 166.169  0.00  0.00    +0.000 C 
ATOM      5  N3  UNL     1     146.460 165.526 167.509  0.00  0.00    +0.000 NA
ATOM      6  C4  UNL     1     145.610 164.671 168.098  0.00  0.00    +0.000 C 
ATOM      7  C5  UNL     1     144.930 163.787 167.287  0.00  0.00    +0.000 A 
ATOM      8  N4  UNL     1     144.031 162.830 167.558  0.00  0.00    +0.000 NA
ATOM      9  C6  UNL     1     143.671 162.243 166.379  0.00  0.00    +0.000 A 
ATOM     10  N5  UNL     1     147.585 166.482 165.628  0.00  0.00    +0.000 N 
ATOM     11  H5  UNL     1     148.520 166.216 165.261  0.00  0.00    +0.000 HD
ATOM     12  H6  UNL     1     147.279 167.499 165.608  0.00  0.00    +0.000 HD
ENDROOT
BRANCH   6  13
ATOM     13  O2  UNL     1     145.432 164.690 169.472  0.00  0.00    +0.000 OA
ATOM     14  H4  UNL     1     144.914 163.967 169.947  0.00  0.00    +0.000 HD
ENDBRANCH   6  13
BRANCH   1  15
ATOM     15  C1  UNL     1     144.213 162.469 163.988  0.00  0.00    +0.000 C 
BRANCH  15  16
ATOM     16  O1  UNL     1     145.034 161.382 163.631  0.00  0.00    +0.000 OA
BRANCH  16  17
ATOM     17  C7  UNL     1     144.168 160.423 163.086  0.00  0.00    +0.000 C 
BRANCH  17  18
ATOM     18  C8  UNL     1     144.891 159.103 162.873  0.00  0.00    +0.000 C 
BRANCH  18  19
ATOM     19  O3  UNL     1     146.203 159.184 163.344  0.00  0.00    +0.000 OA
ATOM     20  H11 UNL     1     146.830 158.676 162.747  0.00  0.00    +0.000 HD
ENDBRANCH  18  19
ENDBRANCH  17  18
ENDBRANCH  16  17
ENDBRANCH  15  16
ENDBRANCH   1  15
TORSDOF 6
ENDMDL
