MODEL 1
REMARK VINA RESULT:      -5.2      0.000      0.000
REMARK  Name = ./3D_structures\o42_MMV690540_3D.pdb
REMARK  2 active torsions:
REMARK  status: ('A' for Active; 'I' for Inactive)
REMARK    1  A    between atoms: C2_3  and  O1_4
REMARK    2  A    between atoms: C4_9  and  C5_10
REMARK                            x       y       z     vdW  Elec       q    Type
REMARK                         _______ _______ _______ _____ _____    ______ ____
ROOT
ATOM      1 BR1  UNL     1     142.962 165.787 165.384  0.00  0.00    +0.000 Br
ATOM      2  C1  UNL     1     144.824 165.914 165.647  0.00  0.00    +0.000 C 
ATOM      3  C2  UNL     1     145.428 167.164 165.634  0.00  0.00    +0.000 C 
ATOM      4  N1  UNL     1     146.751 167.251 165.820  0.00  0.00    +0.000 NA
ATOM      5  C3  UNL     1     147.489 166.143 166.016  0.00  0.00    +0.000 C 
ATOM      6  N2  UNL     1     148.888 166.295 166.206  0.00  0.00    +0.000 N 
ATOM      7  N3  UNL     1     146.905 164.955 166.026  0.00  0.00    +0.000 NA
ATOM      8  C4  UNL     1     145.565 164.767 165.846  0.00  0.00    +0.000 C 
ATOM      9  H2  UNL     1     149.428 165.681 166.886  0.00  0.00    +0.000 HD
ATOM     10  H3  UNL     1     149.472 167.001 165.709  0.00  0.00    +0.000 HD
ENDROOT
BRANCH   8  11
ATOM     11  C5  UNL     1     144.995 163.427 165.869  0.00  0.00    +0.000 A 
ATOM     12  C6  UNL     1     144.701 162.690 164.743  0.00  0.00    +0.000 A 
ATOM     13  C7  UNL     1     144.158 161.410 164.819  0.00  0.00    +0.000 A 
ATOM     14  C8  UNL     1     143.901 160.848 166.051  0.00  0.00    +0.000 A 
ATOM     15  C9  UNL     1     144.180 161.550 167.180  0.00  0.00    +0.000 A 
ATOM     16  C10 UNL     1     144.724 162.830 167.087  0.00  0.00    +0.000 A 
ENDBRANCH   8  11
BRANCH   3  17
ATOM     17  O1  UNL     1     144.707 168.333 165.437  0.00  0.00    +0.000 OA
ATOM     18  H1  UNL     1     144.355 168.526 164.497  0.00  0.00    +0.000 HD
ENDBRANCH   3  17
TORSDOF 2
ENDMDL
MODEL 2
REMARK VINA RESULT:      -4.9      3.143      5.507
REMARK  Name = ./3D_structures\o42_MMV690540_3D.pdb
REMARK  2 active torsions:
REMARK  status: ('A' for Active; 'I' for Inactive)
REMARK    1  A    between atoms: C2_3  and  O1_4
REMARK    2  A    between atoms: C4_9  and  C5_10
REMARK                            x       y       z     vdW  Elec       q    Type
REMARK                         _______ _______ _______ _____ _____    ______ ____
ROOT
ATOM      1 BR1  UNL     1     147.932 163.154 167.519  0.00  0.00    +0.000 Br
ATOM      2  C1  UNL     1     147.030 164.674 166.866  0.00  0.00    +0.000 C 
ATOM      3  C2  UNL     1     145.646 164.644 166.748  0.00  0.00    +0.000 C 
ATOM      4  N1  UNL     1     145.008 165.726 166.282  0.00  0.00    +0.000 NA
ATOM      5  C3  UNL     1     145.696 166.827 165.931  0.00  0.00    +0.000 C 
ATOM      6  N2  UNL     1     144.967 167.944 165.442  0.00  0.00    +0.000 N 
ATOM      7  N3  UNL     1     147.015 166.847 166.046  0.00  0.00    +0.000 NA
ATOM      8  C4  UNL     1     147.750 165.795 166.510  0.00  0.00    +0.000 C 
ATOM      9  H2  UNL     1     145.251 168.942 165.677  0.00  0.00    +0.000 HD
ATOM     10  H3  UNL     1     144.122 167.871 164.835  0.00  0.00    +0.000 HD
ENDROOT
BRANCH   8  11
ATOM     11  C5  UNL     1     149.201 165.892 166.606  0.00  0.00    +0.000 A 
ATOM     12  C6  UNL     1     150.068 165.602 165.575  0.00  0.00    +0.000 A 
ATOM     13  C7  UNL     1     151.448 165.712 165.717  0.00  0.00    +0.000 A 
ATOM     14  C8  UNL     1     151.981 166.121 166.921  0.00  0.00    +0.000 A 
ATOM     15  C9  UNL     1     151.152 166.415 167.957  0.00  0.00    +0.000 A 
ATOM     16  C10 UNL     1     149.772 166.299 167.798  0.00  0.00    +0.000 A 
ENDBRANCH   8  11
BRANCH   3  17
ATOM     17  O1  UNL     1     144.897 163.531 167.099  0.00  0.00    +0.000 OA
ATOM     18  H1  UNL     1     144.445 163.527 168.016  0.00  0.00    +0.000 HD
ENDBRANCH   3  17
TORSDOF 2
ENDMDL
MODEL 3
REMARK VINA RESULT:      -4.8     13.255     13.943
REMARK  Name = ./3D_structures\o42_MMV690540_3D.pdb
REMARK  2 active torsions:
REMARK  status: ('A' for Active; 'I' for Inactive)
REMARK    1  A    between atoms: C2_3  and  O1_4
REMARK    2  A    between atoms: C4_9  and  C5_10
REMARK                            x       y       z     vdW  Elec       q    Type
REMARK                         _______ _______ _______ _____ _____    ______ ____
ROOT
ATOM      1 BR1  UNL     1     158.191 158.893 168.021  0.00  0.00    +0.000 Br
ATOM      2  C1  UNL     1     157.803 157.546 166.762  0.00  0.00    +0.000 C 
ATOM      3  C2  UNL     1     158.843 156.964 166.047  0.00  0.00    +0.000 C 
ATOM      4  N1  UNL     1     158.564 156.008 165.152  0.00  0.00    +0.000 NA
ATOM      5  C3  UNL     1     157.294 155.614 164.944  0.00  0.00    +0.000 C 
ATOM      6  N2  UNL     1     157.059 154.597 163.982  0.00  0.00    +0.000 N 
ATOM      7  N3  UNL     1     156.309 156.174 165.629  0.00  0.00    +0.000 NA
ATOM      8  C4  UNL     1     156.496 157.154 166.560  0.00  0.00    +0.000 C 
ATOM      9  H2  UNL     1     156.310 153.855 164.127  0.00  0.00    +0.000 HD
ATOM     10  H3  UNL     1     157.587 154.504 163.088  0.00  0.00    +0.000 HD
ENDROOT
BRANCH   8  11
ATOM     11  C5  UNL     1     155.360 157.723 167.274  0.00  0.00    +0.000 A 
ATOM     12  C6  UNL     1     154.892 157.258 168.484  0.00  0.00    +0.000 A 
ATOM     13  C7  UNL     1     153.803 157.838 169.127  0.00  0.00    +0.000 A 
ATOM     14  C8  UNL     1     153.160 158.913 168.549  0.00  0.00    +0.000 A 
ATOM     15  C9  UNL     1     153.598 159.395 167.356  0.00  0.00    +0.000 A 
ATOM     16  C10 UNL     1     154.691 158.802 166.726  0.00  0.00    +0.000 A 
ENDBRANCH   8  11
BRANCH   3  17
ATOM     17  O1  UNL     1     160.166 157.338 166.229  0.00  0.00    +0.000 OA
ATOM     18  H1  UNL     1     160.841 156.609 166.471  0.00  0.00    +0.000 HD
ENDBRANCH   3  17
TORSDOF 2
ENDMDL
MODEL 4
REMARK VINA RESULT:      -4.8     13.484     14.221
REMARK  Name = ./3D_structures\o42_MMV690540_3D.pdb
REMARK  2 active torsions:
REMARK  status: ('A' for Active; 'I' for Inactive)
REMARK    1  A    between atoms: C2_3  and  O1_4
REMARK    2  A    between atoms: C4_9  and  C5_10
REMARK                            x       y       z     vdW  Elec       q    Type
REMARK                         _______ _______ _______ _____ _____    ______ ____
ROOT
ATOM      1 BR1  UNL     1     154.449 157.596 168.276  0.00  0.00    +0.000 Br
ATOM      2  C1  UNL     1     156.231 157.594 167.664  0.00  0.00    +0.000 C 
ATOM      3  C2  UNL     1     156.525 157.025 166.431  0.00  0.00    +0.000 C 
ATOM      4  N1  UNL     1     157.793 157.023 166.000  0.00  0.00    +0.000 NA
ATOM      5  C3  UNL     1     158.771 157.565 166.749  0.00  0.00    +0.000 C 
ATOM      6  N2  UNL     1     160.097 157.534 166.240  0.00  0.00    +0.000 N 
ATOM      7  N3  UNL     1     158.482 158.105 167.922  0.00  0.00    +0.000 NA
ATOM      8  C4  UNL     1     157.222 158.153 168.444  0.00  0.00    +0.000 C 
ATOM      9  H2  UNL     1     160.772 158.342 166.394  0.00  0.00    +0.000 HD
ATOM     10  H3  UNL     1     160.496 156.740 165.695  0.00  0.00    +0.000 HD
ENDROOT
BRANCH   8  11
ATOM     11  C5  UNL     1     156.982 158.764 169.745  0.00  0.00    +0.000 A 
ATOM     12  C6  UNL     1     156.736 158.056 170.900  0.00  0.00    +0.000 A 
ATOM     13  C7  UNL     1     156.514 158.688 172.121  0.00  0.00    +0.000 A 
ATOM     14  C8  UNL     1     156.538 160.064 172.193  0.00  0.00    +0.000 A 
ATOM     15  C9  UNL     1     156.779 160.791 171.070  0.00  0.00    +0.000 A 
ATOM     16  C10 UNL     1     156.999 160.143 169.856  0.00  0.00    +0.000 A 
ENDBRANCH   8  11
BRANCH   3  17
ATOM     17  O1  UNL     1     155.549 156.456 165.626  0.00  0.00    +0.000 OA
ATOM     18  H1  UNL     1     155.597 155.450 165.453  0.00  0.00    +0.000 HD
ENDBRANCH   3  17
TORSDOF 2
ENDMDL
MODEL 5
REMARK VINA RESULT:      -4.7     12.518     13.178
REMARK  Name = ./3D_structures\o42_MMV690540_3D.pdb
REMARK  2 active torsions:
REMARK  status: ('A' for Active; 'I' for Inactive)
REMARK    1  A    between atoms: C2_3  and  O1_4
REMARK    2  A    between atoms: C4_9  and  C5_10
REMARK                            x       y       z     vdW  Elec       q    Type
REMARK                         _______ _______ _______ _____ _____    ______ ____
ROOT
ATOM      1 BR1  UNL     1     157.369 159.377 168.919  0.00  0.00    +0.000 Br
ATOM      2  C1  UNL     1     157.141 158.088 167.563  0.00  0.00    +0.000 C 
ATOM      3  C2  UNL     1     158.259 157.580 166.914  0.00  0.00    +0.000 C 
ATOM      4  N1  UNL     1     158.092 156.665 165.949  0.00  0.00    +0.000 NA
ATOM      5  C3  UNL     1     156.860 156.243 165.612  0.00  0.00    +0.000 C 
ATOM      6  N2  UNL     1     156.745 155.273 164.581  0.00  0.00    +0.000 N 
ATOM      7  N3  UNL     1     155.800 156.733 166.236  0.00  0.00    +0.000 NA
ATOM      8  C4  UNL     1     155.870 157.667 167.229  0.00  0.00    +0.000 C 
ATOM      9  H2  UNL     1     156.014 154.501 164.622  0.00  0.00    +0.000 HD
ATOM     10  H3  UNL     1     157.351 155.245 163.733  0.00  0.00    +0.000 HD
ENDROOT
BRANCH   8  11
ATOM     11  C5  UNL     1     154.658 158.160 167.869  0.00  0.00    +0.000 A 
ATOM     12  C6  UNL     1     153.979 159.293 167.475  0.00  0.00    +0.000 A 
ATOM     13  C7  UNL     1     152.822 159.721 168.119  0.00  0.00    +0.000 A 
ATOM     14  C8  UNL     1     152.325 159.002 169.185  0.00  0.00    +0.000 A 
ATOM     15  C9  UNL     1     152.973 157.880 169.597  0.00  0.00    +0.000 A 
ATOM     16  C10 UNL     1     154.130 157.464 168.941  0.00  0.00    +0.000 A 
ENDBRANCH   8  11
BRANCH   3  17
ATOM     17  O1  UNL     1     159.547 157.986 167.230  0.00  0.00    +0.000 OA
ATOM     18  H1  UNL     1     159.680 158.540 168.078  0.00  0.00    +0.000 HD
ENDBRANCH   3  17
TORSDOF 2
ENDMDL
MODEL 6
REMARK VINA RESULT:      -4.7      3.913      5.690
REMARK  Name = ./3D_structures\o42_MMV690540_3D.pdb
REMARK  2 active torsions:
REMARK  status: ('A' for Active; 'I' for Inactive)
REMARK    1  A    between atoms: C2_3  and  O1_4
REMARK    2  A    between atoms: C4_9  and  C5_10
REMARK                            x       y       z     vdW  Elec       q    Type
REMARK                         _______ _______ _______ _____ _____    ______ ____
ROOT
ATOM      1 BR1  UNL     1     149.222 164.910 170.016  0.00  0.00    +0.000 Br
ATOM      2  C1  UNL     1     147.679 164.728 168.949  0.00  0.00    +0.000 C 
ATOM      3  C2  UNL     1     146.430 164.735 169.555  0.00  0.00    +0.000 C 
ATOM      4  N1  UNL     1     145.335 164.603 168.793  0.00  0.00    +0.000 NA
ATOM      5  C3  UNL     1     145.443 164.465 167.459  0.00  0.00    +0.000 C 
ATOM      6  N2  UNL     1     144.248 164.329 166.703  0.00  0.00    +0.000 N 
ATOM      7  N3  UNL     1     146.638 164.459 166.890  0.00  0.00    +0.000 NA
ATOM      8  C4  UNL     1     147.807 164.587 167.582  0.00  0.00    +0.000 C 
ATOM      9  H2  UNL     1     144.145 164.769 165.740  0.00  0.00    +0.000 HD
ATOM     10  H3  UNL     1     143.408 163.802 167.026  0.00  0.00    +0.000 HD
ENDROOT
BRANCH   8  11
ATOM     11  C5  UNL     1     149.086 164.570 166.885  0.00  0.00    +0.000 A 
ATOM     12  C6  UNL     1     150.002 163.544 166.970  0.00  0.00    +0.000 A 
ATOM     13  C7  UNL     1     151.211 163.574 166.281  0.00  0.00    +0.000 A 
ATOM     14  C8  UNL     1     151.518 164.657 165.485  0.00  0.00    +0.000 A 
ATOM     15  C9  UNL     1     150.635 165.685 165.380  0.00  0.00    +0.000 A 
ATOM     16  C10 UNL     1     149.428 165.638 166.076  0.00  0.00    +0.000 A 
ENDBRANCH   8  11
BRANCH   3  17
ATOM     17  O1  UNL     1     146.272 164.875 170.925  0.00  0.00    +0.000 OA
ATOM     18  H1  UNL     1     146.399 164.046 171.510  0.00  0.00    +0.000 HD
ENDBRANCH   3  17
TORSDOF 2
ENDMDL
MODEL 7
REMARK VINA RESULT:      -4.7     11.897     13.071
REMARK  Name = ./3D_structures\o42_MMV690540_3D.pdb
REMARK  2 active torsions:
REMARK  status: ('A' for Active; 'I' for Inactive)
REMARK    1  A    between atoms: C2_3  and  O1_4
REMARK    2  A    between atoms: C4_9  and  C5_10
REMARK                            x       y       z     vdW  Elec       q    Type
REMARK                         _______ _______ _______ _____ _____    ______ ____
ROOT
ATOM      1 BR1  UNL     1     146.389 154.878 170.097  0.00  0.00    +0.000 Br
ATOM      2  C1  UNL     1     147.378 153.679 169.033  0.00  0.00    +0.000 C 
ATOM      3  C2  UNL     1     146.926 153.371 167.756  0.00  0.00    +0.000 C 
ATOM      4  N1  UNL     1     147.631 152.517 167.003  0.00  0.00    +0.000 NA
ATOM      5  C3  UNL     1     148.763 151.962 167.475  0.00  0.00    +0.000 C 
ATOM      6  N2  UNL     1     149.468 151.063 166.632  0.00  0.00    +0.000 N 
ATOM      7  N3  UNL     1     149.187 152.261 168.693  0.00  0.00    +0.000 NA
ATOM      8  C4  UNL     1     148.536 153.118 169.532  0.00  0.00    +0.000 C 
ATOM      9  H2  UNL     1     150.532 151.032 166.616  0.00  0.00    +0.000 HD
ATOM     10  H3  UNL     1     149.010 150.386 165.984  0.00  0.00    +0.000 HD
ENDROOT
BRANCH   8  11
ATOM     11  C5  UNL     1     149.064 153.397 170.861  0.00  0.00    +0.000 A 
ATOM     12  C6  UNL     1     148.587 152.824 172.020  0.00  0.00    +0.000 A 
ATOM     13  C7  UNL     1     149.129 153.123 173.267  0.00  0.00    +0.000 A 
ATOM     14  C8  UNL     1     150.174 154.016 173.364  0.00  0.00    +0.000 A 
ATOM     15  C9  UNL     1     150.667 154.597 172.238  0.00  0.00    +0.000 A 
ATOM     16  C10 UNL     1     150.113 154.288 170.997  0.00  0.00    +0.000 A 
ENDBRANCH   8  11
BRANCH   3  17
ATOM     17  O1  UNL     1     145.766 153.920 167.229  0.00  0.00    +0.000 OA
ATOM     18  H1  UNL     1     145.101 154.348 167.877  0.00  0.00    +0.000 HD
ENDBRANCH   3  17
TORSDOF 2
ENDMDL
MODEL 8
REMARK VINA RESULT:      -4.6     11.829     12.529
REMARK  Name = ./3D_structures\o42_MMV690540_3D.pdb
REMARK  2 active torsions:
REMARK  status: ('A' for Active; 'I' for Inactive)
REMARK    1  A    between atoms: C2_3  and  O1_4
REMARK    2  A    between atoms: C4_9  and  C5_10
REMARK                            x       y       z     vdW  Elec       q    Type
REMARK                         _______ _______ _______ _____ _____    ______ ____
ROOT
ATOM      1 BR1  UNL     1     155.825 158.954 171.132  0.00  0.00    +0.000 Br
ATOM      2  C1  UNL     1     156.048 158.128 169.453  0.00  0.00    +0.000 C 
ATOM      3  C2  UNL     1     157.319 157.741 169.050  0.00  0.00    +0.000 C 
ATOM      4  N1  UNL     1     157.474 157.155 167.855  0.00  0.00    +0.000 NA
ATOM      5  C3  UNL     1     156.414 156.945 167.053  0.00  0.00    +0.000 C 
ATOM      6  N2  UNL     1     156.639 156.321 165.797  0.00  0.00    +0.000 N 
ATOM      7  N3  UNL     1     155.206 157.318 167.445  0.00  0.00    +0.000 NA
ATOM      8  C4  UNL     1     154.951 157.920 168.643  0.00  0.00    +0.000 C 
ATOM      9  H2  UNL     1     155.943 155.629 165.386  0.00  0.00    +0.000 HD
ATOM     10  H3  UNL     1     157.478 156.489 165.202  0.00  0.00    +0.000 HD
ENDROOT
BRANCH   8  11
ATOM     11  C5  UNL     1     153.592 158.303 169.004  0.00  0.00    +0.000 A 
ATOM     12  C6  UNL     1     152.729 157.509 169.727  0.00  0.00    +0.000 A 
ATOM     13  C7  UNL     1     151.439 157.923 170.049  0.00  0.00    +0.000 A 
ATOM     14  C8  UNL     1     150.995 159.162 169.639  0.00  0.00    +0.000 A 
ATOM     15  C9  UNL     1     151.824 159.969 168.924  0.00  0.00    +0.000 A 
ATOM     16  C10 UNL     1     153.112 159.539 168.611  0.00  0.00    +0.000 A 
ENDBRANCH   8  11
BRANCH   3  17
ATOM     17  O1  UNL     1     158.440 157.937 169.843  0.00  0.00    +0.000 OA
ATOM     18  H1  UNL     1     159.139 157.193 169.877  0.00  0.00    +0.000 HD
ENDBRANCH   3  17
TORSDOF 2
ENDMDL
MODEL 9
REMARK VINA RESULT:      -4.6     13.563     14.328
REMARK  Name = ./3D_structures\o42_MMV690540_3D.pdb
REMARK  2 active torsions:
REMARK  status: ('A' for Active; 'I' for Inactive)
REMARK    1  A    between atoms: C2_3  and  O1_4
REMARK    2  A    between atoms: C4_9  and  C5_10
REMARK                            x       y       z     vdW  Elec       q    Type
REMARK                         _______ _______ _______ _____ _____    ______ ____
ROOT
ATOM      1 BR1  UNL     1     159.246 158.345 168.780  0.00  0.00    +0.000 Br
ATOM      2  C1  UNL     1     157.412 157.966 168.985  0.00  0.00    +0.000 C 
ATOM      3  C2  UNL     1     156.836 158.056 170.246  0.00  0.00    +0.000 C 
ATOM      4  N1  UNL     1     155.532 157.785 170.389  0.00  0.00    +0.000 NA
ATOM      5  C3  UNL     1     154.787 157.429 169.327  0.00  0.00    +0.000 C 
ATOM      6  N2  UNL     1     153.411 157.152 169.538  0.00  0.00    +0.000 N 
ATOM      7  N3  UNL     1     155.344 157.345 168.128  0.00  0.00    +0.000 NA
ATOM      8  C4  UNL     1     156.662 157.602 167.886  0.00  0.00    +0.000 C 
ATOM      9  H2  UNL     1     152.671 157.425 168.823  0.00  0.00    +0.000 HD
ATOM     10  H3  UNL     1     153.033 156.675 170.385  0.00  0.00    +0.000 HD
ENDROOT
BRANCH   8  11
ATOM     11  C5  UNL     1     157.203 157.487 166.538  0.00  0.00    +0.000 A 
ATOM     12  C6  UNL     1     157.203 158.508 165.613  0.00  0.00    +0.000 A 
ATOM     13  C7  UNL     1     157.735 158.348 164.336  0.00  0.00    +0.000 A 
ATOM     14  C8  UNL     1     158.282 157.137 163.969  0.00  0.00    +0.000 A 
ATOM     15  C9  UNL     1     158.297 156.110 164.860  0.00  0.00    +0.000 A 
ATOM     16  C10 UNL     1     157.760 156.287 166.134  0.00  0.00    +0.000 A 
ENDBRANCH   8  11
BRANCH   3  17
ATOM     17  O1  UNL     1     157.565 158.420 171.369  0.00  0.00    +0.000 OA
ATOM     18  H1  UNL     1     158.555 158.645 171.245  0.00  0.00    +0.000 HD
ENDBRANCH   3  17
TORSDOF 2
ENDMDL
