MODEL 1
REMARK VINA RESULT:      -6.5      0.000      0.000
REMARK  Name = ./3D_structures\o43_MMV614278_3D.pdb
REMARK  4 active torsions:
REMARK  status: ('A' for Active; 'I' for Inactive)
REMARK    1  A    between atoms: C2_3  and  C7_9
REMARK    2  A    between atoms: C10_16  and  C12_18
REMARK    3  A    between atoms: C15_21  and  O1_22
REMARK    4  A    between atoms: O1_22  and  C16_23
REMARK                            x       y       z     vdW  Elec       q    Type
REMARK                         _______ _______ _______ _____ _____    ______ ____
ROOT
ATOM      1  C7  UNL     1     146.801 165.361 166.978  0.00  0.00    +0.000 C 
ATOM      2  N1  UNL     1     146.840 165.067 168.377  0.00  0.00    +0.000 N 
ATOM      3  N2  UNL     1     145.845 165.060 169.303  0.00  0.00    +0.000 NA
ATOM      4  C8  UNL     1     146.348 164.725 170.488  0.00  0.00    +0.000 A 
ATOM      5  N3  UNL     1     147.656 164.524 170.299  0.00  0.00    +0.000 NA
ATOM      6  C9  UNL     1     147.965 164.737 168.984  0.00  0.00    +0.000 A 
ATOM      7  N4  UNL     1     149.226 164.644 168.298  0.00  0.00    +0.000 N 
ATOM      8  C10 UNL     1     149.193 164.937 166.895  0.00  0.00    +0.000 C 
ATOM      9  C11 UNL     1     148.074 165.262 166.312  0.00  0.00    +0.000 C 
ATOM     10  H6  UNL     1     150.049 164.381 168.848  0.00  0.00    +0.000 HD
ENDROOT
BRANCH   1  13
ATOM     11 CL1  UNL     1     144.700 167.138 165.661  0.00  0.00    +0.000 Cl
ATOM     12  C1  UNL     1     144.725 165.387 165.681  0.00  0.00    +0.000 A 
ATOM     13  C2  UNL     1     145.701 164.639 166.286  0.00  0.00    +0.000 A 
ATOM     14  C3  UNL     1     145.641 163.284 166.246  0.00  0.00    +0.000 A 
ATOM     15  C4  UNL     1     144.600 162.604 165.598  0.00  0.00    +0.000 A 
ATOM     16  C5  UNL     1     143.608 163.354 164.984  0.00  0.00    +0.000 A 
ATOM     17  C6  UNL     1     143.679 164.718 165.031  0.00  0.00    +0.000 A 
ATOM     18  F1  UNL     1     146.576 162.510 166.825  0.00  0.00    +0.000 F 
ENDBRANCH   1  13
BRANCH   8  19
ATOM     19  C12 UNL     1     150.471 164.854 166.160  0.00  0.00    +0.000 A 
ATOM     20  C13 UNL     1     151.370 163.848 166.406  0.00  0.00    +0.000 A 
ATOM     21  C14 UNL     1     152.555 163.787 165.713  0.00  0.00    +0.000 A 
ATOM     22  C15 UNL     1     152.875 164.723 164.761  0.00  0.00    +0.000 A 
ATOM     23  C17 UNL     1     151.982 165.735 164.507  0.00  0.00    +0.000 A 
ATOM     24  C18 UNL     1     150.773 165.799 165.211  0.00  0.00    +0.000 A 
BRANCH  22  25
ATOM     25  O1  UNL     1     154.058 164.703 164.037  0.00  0.00    +0.000 OA
ATOM     26  C16 UNL     1     154.304 163.921 162.908  0.00  0.00    +0.000 C 
ENDBRANCH  22  25
ENDBRANCH   8  19
TORSDOF 3
ENDMDL
MODEL 2
REMARK VINA RESULT:      -6.3      3.751      6.866
REMARK  Name = ./3D_structures\o43_MMV614278_3D.pdb
REMARK  4 active torsions:
REMARK  status: ('A' for Active; 'I' for Inactive)
REMARK    1  A    between atoms: C2_3  and  C7_9
REMARK    2  A    between atoms: C10_16  and  C12_18
REMARK    3  A    between atoms: C15_21  and  O1_22
REMARK    4  A    between atoms: O1_22  and  C16_23
REMARK                            x       y       z     vdW  Elec       q    Type
REMARK                         _______ _______ _______ _____ _____    ______ ____
ROOT
ATOM      1  C7  UNL     1     150.489 163.946 167.362  0.00  0.00    +0.000 C 
ATOM      2  N1  UNL     1     151.264 165.088 167.737  0.00  0.00    +0.000 N 
ATOM      3  N2  UNL     1     152.551 165.176 168.163  0.00  0.00    +0.000 NA
ATOM      4  C8  UNL     1     152.850 166.450 168.400  0.00  0.00    +0.000 A 
ATOM      5  N3  UNL     1     151.749 167.155 168.121  0.00  0.00    +0.000 NA
ATOM      6  C9  UNL     1     150.758 166.308 167.707  0.00  0.00    +0.000 A 
ATOM      7  N4  UNL     1     149.407 166.585 167.299  0.00  0.00    +0.000 N 
ATOM      8  C10 UNL     1     148.626 165.444 166.921  0.00  0.00    +0.000 C 
ATOM      9  C11 UNL     1     149.139 164.247 166.956  0.00  0.00    +0.000 C 
ATOM     10  H6  UNL     1     149.098 167.562 167.306  0.00  0.00    +0.000 HD
ENDROOT
BRANCH   1  13
ATOM     11 CL1  UNL     1     151.010 161.111 168.362  0.00  0.00    +0.000 Cl
ATOM     12  C1  UNL     1     151.487 161.779 166.815  0.00  0.00    +0.000 A 
ATOM     13  C2  UNL     1     151.219 163.062 166.416  0.00  0.00    +0.000 A 
ATOM     14  C3  UNL     1     151.623 163.491 165.194  0.00  0.00    +0.000 A 
ATOM     15  C4  UNL     1     152.317 162.658 164.304  0.00  0.00    +0.000 A 
ATOM     16  C5  UNL     1     152.592 161.358 164.701  0.00  0.00    +0.000 A 
ATOM     17  C6  UNL     1     152.180 160.937 165.934  0.00  0.00    +0.000 A 
ATOM     18  F1  UNL     1     151.383 164.741 164.760  0.00  0.00    +0.000 F 
ENDBRANCH   1  13
BRANCH   8  19
ATOM     19  C12 UNL     1     147.233 165.693 166.498  0.00  0.00    +0.000 A 
ATOM     20  C13 UNL     1     146.869 166.871 165.899  0.00  0.00    +0.000 A 
ATOM     21  C14 UNL     1     145.568 167.086 165.513  0.00  0.00    +0.000 A 
ATOM     22  C15 UNL     1     144.598 166.136 165.712  0.00  0.00    +0.000 A 
ATOM     23  C17 UNL     1     144.951 164.951 166.312  0.00  0.00    +0.000 A 
ATOM     24  C18 UNL     1     146.276 164.729 166.705  0.00  0.00    +0.000 A 
BRANCH  22  25
ATOM     25  O1  UNL     1     143.273 166.307 165.341  0.00  0.00    +0.000 OA
ATOM     26  C16 UNL     1     142.341 165.282 165.168  0.00  0.00    +0.000 C 
ENDBRANCH  22  25
ENDBRANCH   8  19
TORSDOF 3
ENDMDL
MODEL 3
REMARK VINA RESULT:      -6.1      7.806     11.016
REMARK  Name = ./3D_structures\o43_MMV614278_3D.pdb
REMARK  4 active torsions:
REMARK  status: ('A' for Active; 'I' for Inactive)
REMARK    1  A    between atoms: C2_3  and  C7_9
REMARK    2  A    between atoms: C10_16  and  C12_18
REMARK    3  A    between atoms: C15_21  and  O1_22
REMARK    4  A    between atoms: O1_22  and  C16_23
REMARK                            x       y       z     vdW  Elec       q    Type
REMARK                         _______ _______ _______ _____ _____    ______ ____
ROOT
ATOM      1  C7  UNL     1     157.221 159.326 167.386  0.00  0.00    +0.000 C 
ATOM      2  N1  UNL     1     157.589 158.297 166.463  0.00  0.00    +0.000 N 
ATOM      3  N2  UNL     1     158.494 157.291 166.584  0.00  0.00    +0.000 NA
ATOM      4  C8  UNL     1     158.502 156.569 165.466  0.00  0.00    +0.000 A 
ATOM      5  N3  UNL     1     157.601 157.127 164.651  0.00  0.00    +0.000 NA
ATOM      6  C9  UNL     1     157.031 158.205 165.270  0.00  0.00    +0.000 A 
ATOM      7  N4  UNL     1     156.020 159.117 164.807  0.00  0.00    +0.000 N 
ATOM      8  C10 UNL     1     155.646 160.150 165.727  0.00  0.00    +0.000 C 
ATOM      9  C11 UNL     1     156.207 160.228 166.901  0.00  0.00    +0.000 C 
ATOM     10  H6  UNL     1     155.641 158.970 163.866  0.00  0.00    +0.000 HD
ENDROOT
BRANCH   1  13
ATOM     11 CL1  UNL     1     158.983 160.444 169.611  0.00  0.00    +0.000 Cl
ATOM     12  C1  UNL     1     157.714 159.250 169.782  0.00  0.00    +0.000 A 
ATOM     13  C2  UNL     1     156.948 158.788 168.744  0.00  0.00    +0.000 A 
ATOM     14  C3  UNL     1     155.981 157.864 168.973  0.00  0.00    +0.000 A 
ATOM     15  C4  UNL     1     155.729 157.352 170.254  0.00  0.00    +0.000 A 
ATOM     16  C5  UNL     1     156.500 157.815 171.309  0.00  0.00    +0.000 A 
ATOM     17  C6  UNL     1     157.471 158.745 171.067  0.00  0.00    +0.000 A 
ATOM     18  F1  UNL     1     155.206 157.382 167.986  0.00  0.00    +0.000 F 
ENDBRANCH   1  13
BRANCH   8  19
ATOM     19  C12 UNL     1     154.612 161.105 165.282  0.00  0.00    +0.000 A 
ATOM     20  C13 UNL     1     153.284 160.765 165.272  0.00  0.00    +0.000 A 
ATOM     21  C14 UNL     1     152.335 161.667 164.854  0.00  0.00    +0.000 A 
ATOM     22  C15 UNL     1     152.683 162.927 164.435  0.00  0.00    +0.000 A 
ATOM     23  C17 UNL     1     154.010 163.279 164.440  0.00  0.00    +0.000 A 
ATOM     24  C18 UNL     1     154.979 162.362 164.867  0.00  0.00    +0.000 A 
BRANCH  22  25
ATOM     25  O1  UNL     1     151.762 163.870 164.004  0.00  0.00    +0.000 OA
ATOM     26  C16 UNL     1     151.519 165.102 164.612  0.00  0.00    +0.000 C 
ENDBRANCH  22  25
ENDBRANCH   8  19
TORSDOF 3
ENDMDL
MODEL 4
REMARK VINA RESULT:      -6.0     11.809     13.986
REMARK  Name = ./3D_structures\o43_MMV614278_3D.pdb
REMARK  4 active torsions:
REMARK  status: ('A' for Active; 'I' for Inactive)
REMARK    1  A    between atoms: C2_3  and  C7_9
REMARK    2  A    between atoms: C10_16  and  C12_18
REMARK    3  A    between atoms: C15_21  and  O1_22
REMARK    4  A    between atoms: O1_22  and  C16_23
REMARK                            x       y       z     vdW  Elec       q    Type
REMARK                         _______ _______ _______ _____ _____    ______ ____
ROOT
ATOM      1  C7  UNL     1     159.157 156.954 165.156  0.00  0.00    +0.000 C 
ATOM      2  N1  UNL     1     158.531 157.879 164.263  0.00  0.00    +0.000 N 
ATOM      3  N2  UNL     1     158.662 158.029 162.919  0.00  0.00    +0.000 NA
ATOM      4  C8  UNL     1     157.881 159.025 162.509  0.00  0.00    +0.000 A 
ATOM      5  N3  UNL     1     157.264 159.494 163.599  0.00  0.00    +0.000 NA
ATOM      6  C9  UNL     1     157.668 158.781 164.694  0.00  0.00    +0.000 A 
ATOM      7  N4  UNL     1     157.290 158.905 166.076  0.00  0.00    +0.000 N 
ATOM      8  C10 UNL     1     157.914 157.980 166.976  0.00  0.00    +0.000 C 
ATOM      9  C11 UNL     1     158.764 157.097 166.535  0.00  0.00    +0.000 C 
ATOM     10  H6  UNL     1     156.612 159.633 166.321  0.00  0.00    +0.000 HD
ENDROOT
BRANCH   1  13
ATOM     11 CL1  UNL     1     161.839 155.704 164.414  0.00  0.00    +0.000 Cl
ATOM     12  C1  UNL     1     160.264 154.947 164.297  0.00  0.00    +0.000 A 
ATOM     13  C2  UNL     1     159.090 155.558 164.653  0.00  0.00    +0.000 A 
ATOM     14  C3  UNL     1     157.915 154.889 164.534  0.00  0.00    +0.000 A 
ATOM     15  C4  UNL     1     157.852 153.574 164.052  0.00  0.00    +0.000 A 
ATOM     16  C5  UNL     1     159.036 152.950 163.690  0.00  0.00    +0.000 A 
ATOM     17  C6  UNL     1     160.214 153.633 163.814  0.00  0.00    +0.000 A 
ATOM     18  F1  UNL     1     156.739 155.447 164.869  0.00  0.00    +0.000 F 
ENDBRANCH   1  13
BRANCH   8  19
ATOM     19  C12 UNL     1     157.550 158.081 168.404  0.00  0.00    +0.000 A 
ATOM     20  C13 UNL     1     158.461 158.484 169.345  0.00  0.00    +0.000 A 
ATOM     21  C14 UNL     1     158.104 158.571 170.669  0.00  0.00    +0.000 A 
ATOM     22  C15 UNL     1     156.835 158.261 171.089  0.00  0.00    +0.000 A 
ATOM     23  C17 UNL     1     155.913 157.856 170.155  0.00  0.00    +0.000 A 
ATOM     24  C18 UNL     1     156.274 157.767 168.804  0.00  0.00    +0.000 A 
BRANCH  22  25
ATOM     25  O1  UNL     1     156.429 158.333 172.413  0.00  0.00    +0.000 OA
ATOM     26  C16 UNL     1     155.778 159.417 173.003  0.00  0.00    +0.000 C 
ENDBRANCH  22  25
ENDBRANCH   8  19
TORSDOF 3
ENDMDL
MODEL 5
REMARK VINA RESULT:      -6.0     10.510     13.221
REMARK  Name = ./3D_structures\o43_MMV614278_3D.pdb
REMARK  4 active torsions:
REMARK  status: ('A' for Active; 'I' for Inactive)
REMARK    1  A    between atoms: C2_3  and  C7_9
REMARK    2  A    between atoms: C10_16  and  C12_18
REMARK    3  A    between atoms: C15_21  and  O1_22
REMARK    4  A    between atoms: O1_22  and  C16_23
REMARK                            x       y       z     vdW  Elec       q    Type
REMARK                         _______ _______ _______ _____ _____    ______ ____
ROOT
ATOM      1  C7  UNL     1     156.475 157.723 166.583  0.00  0.00    +0.000 C 
ATOM      2  N1  UNL     1     156.634 158.902 165.789  0.00  0.00    +0.000 N 
ATOM      3  N2  UNL     1     156.313 160.194 166.059  0.00  0.00    +0.000 NA
ATOM      4  C8  UNL     1     156.643 160.957 165.020  0.00  0.00    +0.000 A 
ATOM      5  N3  UNL     1     157.170 160.138 164.103  0.00  0.00    +0.000 NA
ATOM      6  C9  UNL     1     157.165 158.856 164.580  0.00  0.00    +0.000 A 
ATOM      7  N4  UNL     1     157.622 157.636 163.972  0.00  0.00    +0.000 N 
ATOM      8  C10 UNL     1     157.466 156.451 164.764  0.00  0.00    +0.000 C 
ATOM      9  C11 UNL     1     156.940 156.513 165.954  0.00  0.00    +0.000 C 
ATOM     10  H6  UNL     1     158.022 157.693 163.031  0.00  0.00    +0.000 HD
ENDROOT
BRANCH   1  13
ATOM     11 CL1  UNL     1     154.375 157.437 168.777  0.00  0.00    +0.000 Cl
ATOM     12  C1  UNL     1     156.074 157.801 168.996  0.00  0.00    +0.000 A 
ATOM     13  C2  UNL     1     156.975 157.912 167.969  0.00  0.00    +0.000 A 
ATOM     14  C3  UNL     1     158.276 158.191 168.235  0.00  0.00    +0.000 A 
ATOM     15  C4  UNL     1     158.746 158.375 169.544  0.00  0.00    +0.000 A 
ATOM     16  C5  UNL     1     157.840 158.265 170.588  0.00  0.00    +0.000 A 
ATOM     17  C6  UNL     1     156.532 157.983 170.308  0.00  0.00    +0.000 A 
ATOM     18  F1  UNL     1     159.195 158.309 167.261  0.00  0.00    +0.000 F 
ENDBRANCH   1  13
BRANCH   8  19
ATOM     19  C12 UNL     1     157.924 155.179 164.169  0.00  0.00    +0.000 A 
ATOM     20  C13 UNL     1     158.658 154.277 164.893  0.00  0.00    +0.000 A 
ATOM     21  C14 UNL     1     159.077 153.099 164.322  0.00  0.00    +0.000 A 
ATOM     22  C15 UNL     1     158.776 152.791 163.019  0.00  0.00    +0.000 A 
ATOM     23  C17 UNL     1     158.041 153.688 162.283  0.00  0.00    +0.000 A 
ATOM     24  C18 UNL     1     157.613 154.888 162.863  0.00  0.00    +0.000 A 
BRANCH  22  25
ATOM     25  O1  UNL     1     159.176 151.616 162.400  0.00  0.00    +0.000 OA
ATOM     26  C16 UNL     1     158.332 150.711 161.756  0.00  0.00    +0.000 C 
ENDBRANCH  22  25
ENDBRANCH   8  19
TORSDOF 3
ENDMDL
MODEL 6
REMARK VINA RESULT:      -6.0      4.210      6.248
REMARK  Name = ./3D_structures\o43_MMV614278_3D.pdb
REMARK  4 active torsions:
REMARK  status: ('A' for Active; 'I' for Inactive)
REMARK    1  A    between atoms: C2_3  and  C7_9
REMARK    2  A    between atoms: C10_16  and  C12_18
REMARK    3  A    between atoms: C15_21  and  O1_22
REMARK    4  A    between atoms: O1_22  and  C16_23
REMARK                            x       y       z     vdW  Elec       q    Type
REMARK                         _______ _______ _______ _____ _____    ______ ____
ROOT
ATOM      1  C7  UNL     1     150.259 163.346 166.948  0.00  0.00    +0.000 C 
ATOM      2  N1  UNL     1     150.861 164.241 166.007  0.00  0.00    +0.000 N 
ATOM      3  N2  UNL     1     150.438 165.448 165.548  0.00  0.00    +0.000 NA
ATOM      4  C8  UNL     1     151.324 165.922 164.676  0.00  0.00    +0.000 A 
ATOM      5  N3  UNL     1     152.298 165.010 164.594  0.00  0.00    +0.000 NA
ATOM      6  C9  UNL     1     152.011 163.961 165.423  0.00  0.00    +0.000 A 
ATOM      7  N4  UNL     1     152.746 162.751 165.681  0.00  0.00    +0.000 N 
ATOM      8  C10 UNL     1     152.149 161.851 166.623  0.00  0.00    +0.000 C 
ATOM      9  C11 UNL     1     151.012 162.142 167.191  0.00  0.00    +0.000 C 
ATOM     10  H6  UNL     1     153.631 162.616 165.183  0.00  0.00    +0.000 HD
ENDROOT
BRANCH   1  13
ATOM     11 CL1  UNL     1     147.242 163.507 167.365  0.00  0.00    +0.000 Cl
ATOM     12  C1  UNL     1     148.480 164.153 168.422  0.00  0.00    +0.000 A 
ATOM     13  C2  UNL     1     149.825 164.045 168.185  0.00  0.00    +0.000 A 
ATOM     14  C3  UNL     1     150.713 164.573 169.065  0.00  0.00    +0.000 A 
ATOM     15  C4  UNL     1     150.303 165.238 170.229  0.00  0.00    +0.000 A 
ATOM     16  C5  UNL     1     148.943 165.351 170.475  0.00  0.00    +0.000 A 
ATOM     17  C6  UNL     1     148.057 164.816 169.582  0.00  0.00    +0.000 A 
ATOM     18  F1  UNL     1     152.042 164.491 168.874  0.00  0.00    +0.000 F 
ENDBRANCH   1  13
BRANCH   8  19
ATOM     19  C12 UNL     1     152.876 160.598 166.910  0.00  0.00    +0.000 A 
ATOM     20  C13 UNL     1     153.580 159.943 165.934  0.00  0.00    +0.000 A 
ATOM     21  C14 UNL     1     154.250 158.778 166.219  0.00  0.00    +0.000 A 
ATOM     22  C15 UNL     1     154.236 158.236 167.479  0.00  0.00    +0.000 A 
ATOM     23  C17 UNL     1     153.533 158.883 168.466  0.00  0.00    +0.000 A 
ATOM     24  C18 UNL     1     152.850 160.071 168.178  0.00  0.00    +0.000 A 
BRANCH  22  25
ATOM     25  O1  UNL     1     154.895 157.062 167.814  0.00  0.00    +0.000 OA
ATOM     26  C16 UNL     1     155.891 156.941 168.785  0.00  0.00    +0.000 C 
ENDBRANCH  22  25
ENDBRANCH   8  19
TORSDOF 3
ENDMDL
MODEL 7
REMARK VINA RESULT:      -5.9     10.149     12.925
REMARK  Name = ./3D_structures\o43_MMV614278_3D.pdb
REMARK  4 active torsions:
REMARK  status: ('A' for Active; 'I' for Inactive)
REMARK    1  A    between atoms: C2_3  and  C7_9
REMARK    2  A    between atoms: C10_16  and  C12_18
REMARK    3  A    between atoms: C15_21  and  O1_22
REMARK    4  A    between atoms: O1_22  and  C16_23
REMARK                            x       y       z     vdW  Elec       q    Type
REMARK                         _______ _______ _______ _____ _____    ______ ____
ROOT
ATOM      1  C7  UNL     1     156.801 157.992 166.080  0.00  0.00    +0.000 C 
ATOM      2  N1  UNL     1     158.043 158.551 166.515  0.00  0.00    +0.000 N 
ATOM      3  N2  UNL     1     158.299 159.685 167.218  0.00  0.00    +0.000 NA
ATOM      4  C8  UNL     1     159.611 159.808 167.395  0.00  0.00    +0.000 A 
ATOM      5  N3  UNL     1     160.173 158.749 166.801  0.00  0.00    +0.000 NA
ATOM      6  C9  UNL     1     159.196 157.965 166.251  0.00  0.00    +0.000 A 
ATOM      7  N4  UNL     1     159.298 156.732 165.517  0.00  0.00    +0.000 N 
ATOM      8  C10 UNL     1     158.056 156.166 165.079  0.00  0.00    +0.000 C 
ATOM      9  C11 UNL     1     156.926 156.758 165.347  0.00  0.00    +0.000 C 
ATOM     10  H6  UNL     1     160.234 156.347 165.359  0.00  0.00    +0.000 HD
ENDROOT
BRANCH   1  13
ATOM     11 CL1  UNL     1     154.321 159.717 165.651  0.00  0.00    +0.000 Cl
ATOM     12  C1  UNL     1     154.664 158.704 167.038  0.00  0.00    +0.000 A 
ATOM     13  C2  UNL     1     155.796 157.944 167.173  0.00  0.00    +0.000 A 
ATOM     14  C3  UNL     1     155.974 157.183 168.283  0.00  0.00    +0.000 A 
ATOM     15  C4  UNL     1     155.029 157.143 169.318  0.00  0.00    +0.000 A 
ATOM     16  C5  UNL     1     153.880 157.910 169.188  0.00  0.00    +0.000 A 
ATOM     17  C6  UNL     1     153.712 158.672 168.066  0.00  0.00    +0.000 A 
ATOM     18  F1  UNL     1     157.068 156.422 168.459  0.00  0.00    +0.000 F 
ENDBRANCH   1  13
BRANCH   8  19
ATOM     19  C12 UNL     1     158.123 154.901 164.321  0.00  0.00    +0.000 A 
ATOM     20  C13 UNL     1     158.715 153.783 164.850  0.00  0.00    +0.000 A 
ATOM     21  C14 UNL     1     158.770 152.614 164.129  0.00  0.00    +0.000 A 
ATOM     22  C15 UNL     1     158.239 152.528 162.867  0.00  0.00    +0.000 A 
ATOM     23  C17 UNL     1     157.643 153.642 162.326  0.00  0.00    +0.000 A 
ATOM     24  C18 UNL     1     157.586 154.834 163.059  0.00  0.00    +0.000 A 
BRANCH  22  25
ATOM     25  O1  UNL     1     158.271 151.372 162.101  0.00  0.00    +0.000 OA
ATOM     26  C16 UNL     1     157.347 151.029 161.113  0.00  0.00    +0.000 C 
ENDBRANCH  22  25
ENDBRANCH   8  19
TORSDOF 3
ENDMDL
MODEL 8
REMARK VINA RESULT:      -5.7      6.355      8.704
REMARK  Name = ./3D_structures\o43_MMV614278_3D.pdb
REMARK  4 active torsions:
REMARK  status: ('A' for Active; 'I' for Inactive)
REMARK    1  A    between atoms: C2_3  and  C7_9
REMARK    2  A    between atoms: C10_16  and  C12_18
REMARK    3  A    between atoms: C15_21  and  O1_22
REMARK    4  A    between atoms: O1_22  and  C16_23
REMARK                            x       y       z     vdW  Elec       q    Type
REMARK                         _______ _______ _______ _____ _____    ______ ____
ROOT
ATOM      1  C7  UNL     1     153.086 158.817 169.179  0.00  0.00    +0.000 C 
ATOM      2  N1  UNL     1     151.826 158.525 169.790  0.00  0.00    +0.000 N 
ATOM      3  N2  UNL     1     151.492 157.581 170.708  0.00  0.00    +0.000 NA
ATOM      4  C8  UNL     1     150.195 157.678 170.988  0.00  0.00    +0.000 A 
ATOM      5  N3  UNL     1     149.722 158.683 170.244  0.00  0.00    +0.000 NA
ATOM      6  C9  UNL     1     150.738 159.212 169.496  0.00  0.00    +0.000 A 
ATOM      7  N4  UNL     1     150.729 160.298 168.552  0.00  0.00    +0.000 N 
ATOM      8  C10 UNL     1     151.990 160.596 167.937  0.00  0.00    +0.000 C 
ATOM      9  C11 UNL     1     153.054 159.908 168.238  0.00  0.00    +0.000 C 
ATOM     10  H6  UNL     1     149.839 160.777 168.385  0.00  0.00    +0.000 HD
ENDROOT
BRANCH   1  13
ATOM     11 CL1  UNL     1     155.430 156.916 168.736  0.00  0.00    +0.000 Cl
ATOM     12  C1  UNL     1     155.258 158.080 170.033  0.00  0.00    +0.000 A 
ATOM     13  C2  UNL     1     154.181 158.915 170.178  0.00  0.00    +0.000 A 
ATOM     14  C3  UNL     1     154.137 159.792 171.213  0.00  0.00    +0.000 A 
ATOM     15  C4  UNL     1     155.169 159.880 172.159  0.00  0.00    +0.000 A 
ATOM     16  C5  UNL     1     156.262 159.038 172.018  0.00  0.00    +0.000 A 
ATOM     17  C6  UNL     1     156.295 158.159 170.972  0.00  0.00    +0.000 A 
ATOM     18  F1  UNL     1     153.102 160.630 171.396  0.00  0.00    +0.000 F 
ENDBRANCH   1  13
BRANCH   8  19
ATOM     19  C12 UNL     1     152.016 161.704 166.962  0.00  0.00    +0.000 A 
ATOM     20  C13 UNL     1     152.163 161.469 165.619  0.00  0.00    +0.000 A 
ATOM     21  C14 UNL     1     152.187 162.513 164.726  0.00  0.00    +0.000 A 
ATOM     22  C15 UNL     1     152.065 163.814 165.145  0.00  0.00    +0.000 A 
ATOM     23  C17 UNL     1     151.918 164.063 166.488  0.00  0.00    +0.000 A 
ATOM     24  C18 UNL     1     151.892 163.000 167.400  0.00  0.00    +0.000 A 
BRANCH  22  25
ATOM     25  O1  UNL     1     152.084 164.899 164.282  0.00  0.00    +0.000 OA
ATOM     26  C16 UNL     1     151.761 166.213 164.625  0.00  0.00    +0.000 C 
ENDBRANCH  22  25
ENDBRANCH   8  19
TORSDOF 3
ENDMDL
MODEL 9
REMARK VINA RESULT:      -5.7     22.477     24.135
REMARK  Name = ./3D_structures\o43_MMV614278_3D.pdb
REMARK  4 active torsions:
REMARK  status: ('A' for Active; 'I' for Inactive)
REMARK    1  A    between atoms: C2_3  and  C7_9
REMARK    2  A    between atoms: C10_16  and  C12_18
REMARK    3  A    between atoms: C15_21  and  O1_22
REMARK    4  A    between atoms: O1_22  and  C16_23
REMARK                            x       y       z     vdW  Elec       q    Type
REMARK                         _______ _______ _______ _____ _____    ______ ____
ROOT
ATOM      1  C7  UNL     1     162.706 144.711 169.494  0.00  0.00    +0.000 C 
ATOM      2  N1  UNL     1     161.635 144.505 168.568  0.00  0.00    +0.000 N 
ATOM      3  N2  UNL     1     160.737 143.490 168.475  0.00  0.00    +0.000 NA
ATOM      4  C8  UNL     1     159.917 143.719 167.453  0.00  0.00    +0.000 A 
ATOM      5  N3  UNL     1     160.306 144.878 166.910  0.00  0.00    +0.000 NA
ATOM      6  C9  UNL     1     161.377 145.369 167.604  0.00  0.00    +0.000 A 
ATOM      7  N4  UNL     1     162.139 146.573 167.408  0.00  0.00    +0.000 N 
ATOM      8  C10 UNL     1     163.214 146.786 168.333  0.00  0.00    +0.000 C 
ATOM      9  C11 UNL     1     163.456 145.923 169.278  0.00  0.00    +0.000 C 
ATOM     10  H6  UNL     1     161.869 147.188 166.634  0.00  0.00    +0.000 HD
ENDROOT
BRANCH   1  13
ATOM     11 CL1  UNL     1     163.753 142.178 170.834  0.00  0.00    +0.000 Cl
ATOM     12  C1  UNL     1     162.709 143.387 171.552  0.00  0.00    +0.000 A 
ATOM     13  C2  UNL     1     162.274 144.512 170.901  0.00  0.00    +0.000 A 
ATOM     14  C3  UNL     1     161.471 145.398 171.542  0.00  0.00    +0.000 A 
ATOM     15  C4  UNL     1     161.059 145.206 172.868  0.00  0.00    +0.000 A 
ATOM     16  C5  UNL     1     161.495 144.070 173.533  0.00  0.00    +0.000 A 
ATOM     17  C6  UNL     1     162.304 143.185 172.878  0.00  0.00    +0.000 A 
ATOM     18  F1  UNL     1     161.019 146.515 170.943  0.00  0.00    +0.000 F 
ENDBRANCH   1  13
BRANCH   8  19
ATOM     19  C12 UNL     1     164.019 148.012 168.159  0.00  0.00    +0.000 A 
ATOM     20  C13 UNL     1     163.578 149.225 168.619  0.00  0.00    +0.000 A 
ATOM     21  C14 UNL     1     164.340 150.356 168.448  0.00  0.00    +0.000 A 
ATOM     22  C15 UNL     1     165.556 150.307 167.814  0.00  0.00    +0.000 A 
ATOM     23  C17 UNL     1     166.008 149.097 167.347  0.00  0.00    +0.000 A 
ATOM     24  C18 UNL     1     165.234 147.943 167.522  0.00  0.00    +0.000 A 
BRANCH  22  25
ATOM     25  O1  UNL     1     166.360 151.420 167.616  0.00  0.00    +0.000 OA
ATOM     26  C16 UNL     1     167.670 151.566 168.075  0.00  0.00    +0.000 C 
ENDBRANCH  22  25
ENDBRANCH   8  19
TORSDOF 3
ENDMDL
