MODEL 1
REMARK VINA RESULT:      -7.1      0.000      0.000
REMARK  Name = ./3D_structures\o44_MMV1580489_3D.pdb
REMARK  6 active torsions:
REMARK  status: ('A' for Active; 'I' for Inactive)
REMARK    1  A    between atoms: C1_1  and  C2_2
REMARK    2  A    between atoms: C2_2  and  N1_3
REMARK    3  A    between atoms: N1_3  and  C22_28
REMARK    4  A    between atoms: C5_6  and  N2_9
REMARK    5  A    between atoms: C8_10  and  C9_12
REMARK    6  A    between atoms: C22_28  and  C23_29
REMARK                            x       y       z     vdW  Elec       q    Type
REMARK                         _______ _______ _______ _____ _____    ______ ____
ROOT
ATOM      1  N2  UNL     1     153.270 161.296 167.457  0.00  0.00    +0.000 N 
ATOM      2  C8  UNL     1     152.712 161.229 166.143  0.00  0.00    +0.000 C 
ATOM      3  O1  UNL     1     153.077 160.323 165.366  0.00  0.00    +0.000 OA
ATOM      4  H15 UNL     1     152.947 162.063 168.081  0.00  0.00    +0.000 HD
ENDROOT
BRANCH   2   5
ATOM      5  C9  UNL     1     151.696 162.211 165.650  0.00  0.00    +0.000 C 
ATOM      6  C10 UNL     1     152.316 163.517 165.356  0.00  0.00    +0.000 A 
ATOM      7  C11 UNL     1     151.887 164.651 165.986  0.00  0.00    +0.000 A 
ATOM      8  O2  UNL     1     150.859 164.620 166.928  0.00  0.00    +0.000 OA
ATOM      9  C12 UNL     1     150.243 163.424 167.249  0.00  0.00    +0.000 A 
ATOM     10  C13 UNL     1     150.635 162.273 166.653  0.00  0.00    +0.000 A 
ATOM     11  C14 UNL     1     149.986 161.079 167.006  0.00  0.00    +0.000 A 
ATOM     12  C15 UNL     1     148.978 161.071 167.935  0.00  0.00    +0.000 A 
ATOM     13 CL1  UNL     1     148.195 159.537 168.347  0.00  0.00    +0.000 Cl
ATOM     14  C16 UNL     1     148.583 162.241 168.539  0.00  0.00    +0.000 A 
ATOM     15  C17 UNL     1     149.211 163.418 168.202  0.00  0.00    +0.000 A 
ATOM     16  C18 UNL     1     152.510 165.857 165.662  0.00  0.00    +0.000 A 
ATOM     17  C19 UNL     1     153.524 165.907 164.737  0.00  0.00    +0.000 A 
ATOM     18  C20 UNL     1     153.966 164.774 164.097  0.00  0.00    +0.000 A 
ATOM     19  C21 UNL     1     153.344 163.591 164.427  0.00  0.00    +0.000 A 
ATOM     20 CL2  UNL     1     155.263 164.796 162.908  0.00  0.00    +0.000 Cl
ENDBRANCH   2   5
BRANCH   1  24
ATOM     21  N1  UNL     1     155.834 158.542 169.524  0.00  0.00    +0.000 N 
ATOM     22  C3  UNL     1     154.352 158.653 169.655  0.00  0.00    +0.000 C 
ATOM     23  C4  UNL     1     153.673 159.043 168.394  0.00  0.00    +0.000 C 
ATOM     24  C5  UNL     1     154.248 160.318 167.877  0.00  0.00    +0.000 C 
ATOM     25  C6  UNL     1     155.150 160.861 168.967  0.00  0.00    +0.000 C 
ATOM     26  C7  UNL     1     156.282 159.826 169.114  0.00  0.00    +0.000 C 
BRANCH  21  28
ATOM     27  C1  UNL     1     157.536 158.712 171.318  0.00  0.00    +0.000 C 
ATOM     28  C2  UNL     1     156.233 158.136 170.863  0.00  0.00    +0.000 C 
ENDBRANCH  21  28
BRANCH  21  29
ATOM     29  C22 UNL     1     156.069 157.557 168.534  0.00  0.00    +0.000 C 
BRANCH  29  30
ATOM     30  C23 UNL     1     157.032 157.730 167.481  0.00  0.00    +0.000 C 
ATOM     31  C24 UNL     1     158.310 157.813 167.736  0.00  0.00    +0.000 C 
ATOM     32  C25 UNL     1     159.597 157.988 166.973  0.00  0.00    +0.000 C 
ATOM     33  C26 UNL     1     159.473 157.516 165.547  0.00  0.00    +0.000 C 
ATOM     34  C27 UNL     1     158.787 156.188 165.520  0.00  0.00    +0.000 C 
ATOM     35  C28 UNL     1     157.607 156.269 164.594  0.00  0.00    +0.000 C 
ATOM     36  C29 UNL     1     156.365 156.443 165.461  0.00  0.00    +0.000 C 
ATOM     37  C30 UNL     1     156.325 157.785 166.140  0.00  0.00    +0.000 C 
ENDBRANCH  29  30
ENDBRANCH  21  29
ENDBRANCH   1  24
TORSDOF 5
ENDMDL
MODEL 2
REMARK VINA RESULT:      -7.1      5.490      8.293
REMARK  Name = ./3D_structures\o44_MMV1580489_3D.pdb
REMARK  6 active torsions:
REMARK  status: ('A' for Active; 'I' for Inactive)
REMARK    1  A    between atoms: C1_1  and  C2_2
REMARK    2  A    between atoms: C2_2  and  N1_3
REMARK    3  A    between atoms: N1_3  and  C22_28
REMARK    4  A    between atoms: C5_6  and  N2_9
REMARK    5  A    between atoms: C8_10  and  C9_12
REMARK    6  A    between atoms: C22_28  and  C23_29
REMARK                            x       y       z     vdW  Elec       q    Type
REMARK                         _______ _______ _______ _____ _____    ______ ____
ROOT
ATOM      1  N2  UNL     1     158.528 159.924 168.689  0.00  0.00    +0.000 N 
ATOM      2  C8  UNL     1     158.283 158.713 169.408  0.00  0.00    +0.000 C 
ATOM      3  O1  UNL     1     159.212 158.181 170.051  0.00  0.00    +0.000 OA
ATOM      4  H15 UNL     1     157.736 160.343 168.162  0.00  0.00    +0.000 HD
ENDROOT
BRANCH   2   5
ATOM      5  C9  UNL     1     156.944 158.045 169.424  0.00  0.00    +0.000 C 
ATOM      6  C10 UNL     1     156.516 157.676 168.060  0.00  0.00    +0.000 A 
ATOM      7  C11 UNL     1     155.346 158.154 167.542  0.00  0.00    +0.000 A 
ATOM      8  O2  UNL     1     154.519 159.008 168.272  0.00  0.00    +0.000 OA
ATOM      9  C12 UNL     1     154.870 159.394 169.553  0.00  0.00    +0.000 A 
ATOM     10  C13 UNL     1     156.021 158.947 170.109  0.00  0.00    +0.000 A 
ATOM     11  C14 UNL     1     156.342 159.363 171.411  0.00  0.00    +0.000 A 
ATOM     12  C15 UNL     1     155.515 160.203 172.109  0.00  0.00    +0.000 A 
ATOM     13 CL1  UNL     1     155.970 160.698 173.748  0.00  0.00    +0.000 Cl
ATOM     14  C16 UNL     1     154.347 160.655 171.542  0.00  0.00    +0.000 A 
ATOM     15  C17 UNL     1     154.020 160.256 170.266  0.00  0.00    +0.000 A 
ATOM     16  C18 UNL     1     154.993 157.765 166.250  0.00  0.00    +0.000 A 
ATOM     17  C19 UNL     1     155.796 156.926 165.517  0.00  0.00    +0.000 A 
ATOM     18  C20 UNL     1     156.977 156.438 166.025  0.00  0.00    +0.000 A 
ATOM     19  C21 UNL     1     157.312 156.831 167.301  0.00  0.00    +0.000 A 
ATOM     20 CL2  UNL     1     158.032 155.362 165.118  0.00  0.00    +0.000 Cl
ENDBRANCH   2   5
BRANCH   1  24
ATOM     21  N1  UNL     1     162.075 162.288 168.172  0.00  0.00    +0.000 N 
ATOM     22  C3  UNL     1     160.698 162.792 168.450  0.00  0.00    +0.000 C 
ATOM     23  C4  UNL     1     159.898 161.886 169.313  0.00  0.00    +0.000 C 
ATOM     24  C5  UNL     1     159.844 160.522 168.711  0.00  0.00    +0.000 C 
ATOM     25  C6  UNL     1     160.429 160.639 167.318  0.00  0.00    +0.000 C 
ATOM     26  C7  UNL     1     161.903 161.036 167.526  0.00  0.00    +0.000 C 
BRANCH  21  28
ATOM     27  C1  UNL     1     163.155 162.890 166.024  0.00  0.00    +0.000 C 
ATOM     28  C2  UNL     1     162.631 163.349 167.347  0.00  0.00    +0.000 C 
ENDBRANCH  21  28
BRANCH  21  29
ATOM     29  C22 UNL     1     162.706 162.153 169.433  0.00  0.00    +0.000 C 
BRANCH  29  30
ATOM     30  C23 UNL     1     164.111 162.385 169.626  0.00  0.00    +0.000 C 
ATOM     31  C24 UNL     1     164.542 163.398 170.329  0.00  0.00    +0.000 C 
ATOM     32  C25 UNL     1     165.861 163.983 170.760  0.00  0.00    +0.000 C 
ATOM     33  C26 UNL     1     166.954 162.947 170.786  0.00  0.00    +0.000 C 
ATOM     34  C27 UNL     1     166.453 161.710 171.459  0.00  0.00    +0.000 C 
ATOM     35  C28 UNL     1     166.668 160.537 170.545  0.00  0.00    +0.000 C 
ATOM     36  C29 UNL     1     165.330 160.234 169.880  0.00  0.00    +0.000 C 
ATOM     37  C30 UNL     1     164.913 161.311 168.916  0.00  0.00    +0.000 C 
ENDBRANCH  29  30
ENDBRANCH  21  29
ENDBRANCH   1  24
TORSDOF 5
ENDMDL
MODEL 3
REMARK VINA RESULT:      -7.1      3.013      4.186
REMARK  Name = ./3D_structures\o44_MMV1580489_3D.pdb
REMARK  6 active torsions:
REMARK  status: ('A' for Active; 'I' for Inactive)
REMARK    1  A    between atoms: C1_1  and  C2_2
REMARK    2  A    between atoms: C2_2  and  N1_3
REMARK    3  A    between atoms: N1_3  and  C22_28
REMARK    4  A    between atoms: C5_6  and  N2_9
REMARK    5  A    between atoms: C8_10  and  C9_12
REMARK    6  A    between atoms: C22_28  and  C23_29
REMARK                            x       y       z     vdW  Elec       q    Type
REMARK                         _______ _______ _______ _____ _____    ______ ____
ROOT
ATOM      1  N2  UNL     1     151.140 162.776 169.919  0.00  0.00    +0.000 N 
ATOM      2  C8  UNL     1     150.816 163.427 168.688  0.00  0.00    +0.000 C 
ATOM      3  O1  UNL     1     151.349 163.039 167.629  0.00  0.00    +0.000 OA
ATOM      4  H15 UNL     1     150.681 163.121 170.786  0.00  0.00    +0.000 HD
ENDROOT
BRANCH   2   5
ATOM      5  C9  UNL     1     149.851 164.569 168.614  0.00  0.00    +0.000 C 
ATOM      6  C10 UNL     1     150.274 165.681 169.488  0.00  0.00    +0.000 A 
ATOM      7  C11 UNL     1     149.453 166.138 170.481  0.00  0.00    +0.000 A 
ATOM      8  O2  UNL     1     148.198 165.574 170.709  0.00  0.00    +0.000 OA
ATOM      9  C12 UNL     1     147.750 164.526 169.926  0.00  0.00    +0.000 A 
ATOM     10  C13 UNL     1     148.528 164.037 168.931  0.00  0.00    +0.000 A 
ATOM     11  C14 UNL     1     148.039 162.972 168.159  0.00  0.00    +0.000 A 
ATOM     12  C15 UNL     1     146.803 162.432 168.402  0.00  0.00    +0.000 A 
ATOM     13 CL1  UNL     1     146.235 161.087 167.399  0.00  0.00    +0.000 Cl
ATOM     14  C16 UNL     1     146.015 162.931 169.413  0.00  0.00    +0.000 A 
ATOM     15  C17 UNL     1     146.483 163.975 170.177  0.00  0.00    +0.000 A 
ATOM     16  C18 UNL     1     149.906 167.195 171.271  0.00  0.00    +0.000 A 
ATOM     17  C19 UNL     1     151.139 167.761 171.061  0.00  0.00    +0.000 A 
ATOM     18  C20 UNL     1     151.975 167.310 170.067  0.00  0.00    +0.000 A 
ATOM     19  C21 UNL     1     151.516 166.267 169.296  0.00  0.00    +0.000 A 
ATOM     20 CL2  UNL     1     153.562 168.008 169.766  0.00  0.00    +0.000 Cl
ENDBRANCH   2   5
BRANCH   1  24
ATOM     21  N1  UNL     1     154.146 159.828 170.763  0.00  0.00    +0.000 N 
ATOM     22  C3  UNL     1     153.037 160.255 171.664  0.00  0.00    +0.000 C 
ATOM     23  C4  UNL     1     151.792 160.619 170.941  0.00  0.00    +0.000 C 
ATOM     24  C5  UNL     1     152.080 161.677 169.928  0.00  0.00    +0.000 C 
ATOM     25  C6  UNL     1     153.495 162.152 170.188  0.00  0.00    +0.000 C 
ATOM     26  C7  UNL     1     154.394 160.933 169.907  0.00  0.00    +0.000 C 
BRANCH  21  28
ATOM     27  C1  UNL     1     156.481 160.265 171.473  0.00  0.00    +0.000 C 
ATOM     28  C2  UNL     1     155.207 159.516 171.708  0.00  0.00    +0.000 C 
ENDBRANCH  21  28
BRANCH  21  29
ATOM     29  C22 UNL     1     153.664 158.703 170.052  0.00  0.00    +0.000 C 
BRANCH  29  30
ATOM     30  C23 UNL     1     154.165 158.332 168.756  0.00  0.00    +0.000 C 
ATOM     31  C24 UNL     1     153.809 158.979 167.680  0.00  0.00    +0.000 C 
ATOM     32  C25 UNL     1     154.080 158.927 166.199  0.00  0.00    +0.000 C 
ATOM     33  C26 UNL     1     155.406 158.280 165.893  0.00  0.00    +0.000 C 
ATOM     34  C27 UNL     1     156.453 158.834 166.803  0.00  0.00    +0.000 C 
ATOM     35  C28 UNL     1     157.137 157.697 167.507  0.00  0.00    +0.000 C 
ATOM     36  C29 UNL     1     156.538 157.608 168.906  0.00  0.00    +0.000 C 
ATOM     37  C30 UNL     1     155.105 157.150 168.887  0.00  0.00    +0.000 C 
ENDBRANCH  29  30
ENDBRANCH  21  29
ENDBRANCH   1  24
TORSDOF 5
ENDMDL
MODEL 4
REMARK VINA RESULT:      -7.0      2.903      8.816
REMARK  Name = ./3D_structures\o44_MMV1580489_3D.pdb
REMARK  6 active torsions:
REMARK  status: ('A' for Active; 'I' for Inactive)
REMARK    1  A    between atoms: C1_1  and  C2_2
REMARK    2  A    between atoms: C2_2  and  N1_3
REMARK    3  A    between atoms: N1_3  and  C22_28
REMARK    4  A    between atoms: C5_6  and  N2_9
REMARK    5  A    between atoms: C8_10  and  C9_12
REMARK    6  A    between atoms: C22_28  and  C23_29
REMARK                            x       y       z     vdW  Elec       q    Type
REMARK                         _______ _______ _______ _____ _____    ______ ____
ROOT
ATOM      1  N2  UNL     1     153.474 160.228 167.930  0.00  0.00    +0.000 N 
ATOM      2  C8  UNL     1     154.442 160.387 168.970  0.00  0.00    +0.000 C 
ATOM      3  O1  UNL     1     154.955 161.507 169.166  0.00  0.00    +0.000 OA
ATOM      4  H15 UNL     1     153.065 159.282 167.790  0.00  0.00    +0.000 HD
ENDROOT
BRANCH   2   5
ATOM      5  C9  UNL     1     154.873 159.253 169.847  0.00  0.00    +0.000 C 
ATOM      6  C10 UNL     1     154.726 159.597 171.275  0.00  0.00    +0.000 A 
ATOM      7  C11 UNL     1     155.803 159.563 172.115  0.00  0.00    +0.000 A 
ATOM      8  O2  UNL     1     157.074 159.210 171.661  0.00  0.00    +0.000 OA
ATOM      9  C12 UNL     1     157.274 158.883 170.332  0.00  0.00    +0.000 A 
ATOM     10  C13 UNL     1     156.238 158.904 169.460  0.00  0.00    +0.000 A 
ATOM     11  C14 UNL     1     156.482 158.567 168.119  0.00  0.00    +0.000 A 
ATOM     12  C15 UNL     1     157.739 158.224 167.695  0.00  0.00    +0.000 A 
ATOM     13 CL1  UNL     1     157.992 157.810 165.991  0.00  0.00    +0.000 Cl
ATOM     14  C16 UNL     1     158.789 158.204 168.582  0.00  0.00    +0.000 A 
ATOM     15  C17 UNL     1     158.563 158.532 169.898  0.00  0.00    +0.000 A 
ATOM     16  C18 UNL     1     155.600 159.894 173.455  0.00  0.00    +0.000 A 
ATOM     17  C19 UNL     1     154.356 160.244 173.919  0.00  0.00    +0.000 A 
ATOM     18  C20 UNL     1     153.264 160.284 173.085  0.00  0.00    +0.000 A 
ATOM     19  C21 UNL     1     153.480 159.956 171.766  0.00  0.00    +0.000 A 
ATOM     20 CL2  UNL     1     151.656 160.728 173.641  0.00  0.00    +0.000 Cl
ENDBRANCH   2   5
BRANCH   1  24
ATOM     21  N1  UNL     1     152.647 163.080 164.830  0.00  0.00    +0.000 N 
ATOM     22  C3  UNL     1     152.279 161.635 164.834  0.00  0.00    +0.000 C 
ATOM     23  C4  UNL     1     151.958 161.109 166.185  0.00  0.00    +0.000 C 
ATOM     24  C5  UNL     1     153.097 161.361 167.116  0.00  0.00    +0.000 C 
ATOM     25  C6  UNL     1     154.252 161.848 166.265  0.00  0.00    +0.000 C 
ATOM     26  C7  UNL     1     153.786 163.191 165.671  0.00  0.00    +0.000 C 
BRANCH  21  28
ATOM     27  C1  UNL     1     154.221 163.931 163.114  0.00  0.00    +0.000 C 
ATOM     28  C2  UNL     1     152.884 163.334 163.417  0.00  0.00    +0.000 C 
ENDBRANCH  21  28
BRANCH  21  29
ATOM     29  C22 UNL     1     151.530 163.772 165.356  0.00  0.00    +0.000 C 
BRANCH  29  30
ATOM     30  C23 UNL     1     151.658 164.965 166.148  0.00  0.00    +0.000 C 
ATOM     31  C24 UNL     1     151.830 164.907 167.441  0.00  0.00    +0.000 C 
ATOM     32  C25 UNL     1     152.002 165.862 168.593  0.00  0.00    +0.000 C 
ATOM     33  C26 UNL     1     152.557 167.189 168.146  0.00  0.00    +0.000 C 
ATOM     34  C27 UNL     1     153.703 166.961 167.214  0.00  0.00    +0.000 C 
ATOM     35  C28 UNL     1     153.450 167.712 165.938  0.00  0.00    +0.000 C 
ATOM     36  C29 UNL     1     152.941 166.703 164.916  0.00  0.00    +0.000 C 
ATOM     37  C30 UNL     1     151.568 166.188 165.255  0.00  0.00    +0.000 C 
ENDBRANCH  29  30
ENDBRANCH  21  29
ENDBRANCH   1  24
TORSDOF 5
ENDMDL
MODEL 5
REMARK VINA RESULT:      -7.0      3.113      6.318
REMARK  Name = ./3D_structures\o44_MMV1580489_3D.pdb
REMARK  6 active torsions:
REMARK  status: ('A' for Active; 'I' for Inactive)
REMARK    1  A    between atoms: C1_1  and  C2_2
REMARK    2  A    between atoms: C2_2  and  N1_3
REMARK    3  A    between atoms: N1_3  and  C22_28
REMARK    4  A    between atoms: C5_6  and  N2_9
REMARK    5  A    between atoms: C8_10  and  C9_12
REMARK    6  A    between atoms: C22_28  and  C23_29
REMARK                            x       y       z     vdW  Elec       q    Type
REMARK                         _______ _______ _______ _____ _____    ______ ____
ROOT
ATOM      1  N2  UNL     1     149.228 161.183 166.817  0.00  0.00    +0.000 N 
ATOM      2  C8  UNL     1     148.563 160.569 167.924  0.00  0.00    +0.000 C 
ATOM      3  O1  UNL     1     149.238 160.105 168.866  0.00  0.00    +0.000 OA
ATOM      4  H15 UNL     1     148.639 161.560 166.047  0.00  0.00    +0.000 HD
ENDROOT
BRANCH   2   5
ATOM      5  C9  UNL     1     147.073 160.455 168.003  0.00  0.00    +0.000 C 
ATOM      6  C10 UNL     1     146.551 159.556 166.954  0.00  0.00    +0.000 A 
ATOM      7  C11 UNL     1     145.637 160.005 166.043  0.00  0.00    +0.000 A 
ATOM      8  O2  UNL     1     145.168 161.318 166.064  0.00  0.00    +0.000 OA
ATOM      9  C12 UNL     1     145.625 162.208 167.019  0.00  0.00    +0.000 A 
ATOM     10  C13 UNL     1     146.533 161.811 167.942  0.00  0.00    +0.000 A 
ATOM     11  C14 UNL     1     146.974 162.743 168.894  0.00  0.00    +0.000 A 
ATOM     12  C15 UNL     1     146.501 164.030 168.895  0.00  0.00    +0.000 A 
ATOM     13 CL1  UNL     1     147.092 165.167 170.118  0.00  0.00    +0.000 Cl
ATOM     14  C16 UNL     1     145.579 164.430 167.957  0.00  0.00    +0.000 A 
ATOM     15  C17 UNL     1     145.139 163.526 167.018  0.00  0.00    +0.000 A 
ATOM     16  C18 UNL     1     145.176 159.107 165.080  0.00  0.00    +0.000 A 
ATOM     17  C19 UNL     1     145.627 157.810 165.044  0.00  0.00    +0.000 A 
ATOM     18  C20 UNL     1     146.548 157.346 165.954  0.00  0.00    +0.000 A 
ATOM     19  C21 UNL     1     146.993 158.243 166.898  0.00  0.00    +0.000 A 
ATOM     20 CL2  UNL     1     147.150 155.694 165.941  0.00  0.00    +0.000 Cl
ENDBRANCH   2   5
BRANCH   1  24
ATOM     21  N1  UNL     1     153.375 162.070 166.143  0.00  0.00    +0.000 N 
ATOM     22  C3  UNL     1     152.282 163.052 166.399  0.00  0.00    +0.000 C 
ATOM     23  C4  UNL     1     151.231 162.545 167.318  0.00  0.00    +0.000 C 
ATOM     24  C5  UNL     1     150.671 161.264 166.797  0.00  0.00    +0.000 C 
ATOM     25  C6  UNL     1     151.222 161.088 165.397  0.00  0.00    +0.000 C 
ATOM     26  C7  UNL     1     152.745 160.932 165.573  0.00  0.00    +0.000 C 
BRANCH  21  28
ATOM     27  C1  UNL     1     153.679 164.096 164.747  0.00  0.00    +0.000 C 
ATOM     28  C2  UNL     1     154.255 162.812 165.255  0.00  0.00    +0.000 C 
ENDBRANCH  21  28
BRANCH  21  29
ATOM     29  C22 UNL     1     153.947 161.781 167.406  0.00  0.00    +0.000 C 
BRANCH  29  30
ATOM     30  C23 UNL     1     154.445 160.478 167.752  0.00  0.00    +0.000 C 
ATOM     31  C24 UNL     1     153.670 159.575 168.289  0.00  0.00    +0.000 C 
ATOM     32  C25 UNL     1     153.776 158.156 168.783  0.00  0.00    +0.000 C 
ATOM     33  C26 UNL     1     154.904 157.412 168.116  0.00  0.00    +0.000 C 
ATOM     34  C27 UNL     1     154.869 157.668 166.644  0.00  0.00    +0.000 C 
ATOM     35  C28 UNL     1     156.213 158.179 166.206  0.00  0.00    +0.000 C 
ATOM     36  C29 UNL     1     156.095 159.692 166.067  0.00  0.00    +0.000 C 
ATOM     37  C30 UNL     1     155.916 160.377 167.394  0.00  0.00    +0.000 C 
ENDBRANCH  29  30
ENDBRANCH  21  29
ENDBRANCH   1  24
TORSDOF 5
ENDMDL
MODEL 6
REMARK VINA RESULT:      -7.0      3.269      4.564
REMARK  Name = ./3D_structures\o44_MMV1580489_3D.pdb
REMARK  6 active torsions:
REMARK  status: ('A' for Active; 'I' for Inactive)
REMARK    1  A    between atoms: C1_1  and  C2_2
REMARK    2  A    between atoms: C2_2  and  N1_3
REMARK    3  A    between atoms: N1_3  and  C22_28
REMARK    4  A    between atoms: C5_6  and  N2_9
REMARK    5  A    between atoms: C8_10  and  C9_12
REMARK    6  A    between atoms: C22_28  and  C23_29
REMARK                            x       y       z     vdW  Elec       q    Type
REMARK                         _______ _______ _______ _____ _____    ______ ____
ROOT
ATOM      1  N2  UNL     1     149.861 160.896 169.096  0.00  0.00    +0.000 N 
ATOM      2  C8  UNL     1     149.422 161.321 167.803  0.00  0.00    +0.000 C 
ATOM      3  O1  UNL     1     150.155 161.131 166.811  0.00  0.00    +0.000 OA
ATOM      4  H15 UNL     1     149.229 161.069 169.903  0.00  0.00    +0.000 HD
ENDROOT
BRANCH   2   5
ATOM      5  C9  UNL     1     148.103 161.993 167.584  0.00  0.00    +0.000 C 
ATOM      6  C10 UNL     1     147.935 163.146 168.490  0.00  0.00    +0.000 A 
ATOM      7  C11 UNL     1     146.881 163.204 169.358  0.00  0.00    +0.000 A 
ATOM      8  O2  UNL     1     145.933 162.184 169.427  0.00  0.00    +0.000 OA
ATOM      9  C12 UNL     1     146.041 161.075 168.607  0.00  0.00    +0.000 A 
ATOM     10  C13 UNL     1     147.069 160.971 167.731  0.00  0.00    +0.000 A 
ATOM     11  C14 UNL     1     147.144 159.830 166.917  0.00  0.00    +0.000 A 
ATOM     12  C15 UNL     1     146.201 158.838 167.001  0.00  0.00    +0.000 A 
ATOM     13 CL1  UNL     1     146.345 157.418 165.952  0.00  0.00    +0.000 Cl
ATOM     14  C16 UNL     1     145.159 158.947 167.891  0.00  0.00    +0.000 A 
ATOM     15  C17 UNL     1     145.074 160.060 168.695  0.00  0.00    +0.000 A 
ATOM     16  C18 UNL     1     146.774 164.323 170.185  0.00  0.00    +0.000 A 
ATOM     17  C19 UNL     1     147.699 165.337 170.132  0.00  0.00    +0.000 A 
ATOM     18  C20 UNL     1     148.765 165.290 169.265  0.00  0.00    +0.000 A 
ATOM     19  C21 UNL     1     148.858 164.181 168.456  0.00  0.00    +0.000 A 
ATOM     20 CL2  UNL     1     149.970 166.568 169.168  0.00  0.00    +0.000 Cl
ENDBRANCH   2   5
BRANCH   1  24
ATOM     21  N1  UNL     1     153.718 159.452 170.309  0.00  0.00    +0.000 N 
ATOM     22  C3  UNL     1     152.488 159.524 171.148  0.00  0.00    +0.000 C 
ATOM     23  C4  UNL     1     151.235 159.294 170.386  0.00  0.00    +0.000 C 
ATOM     24  C5  UNL     1     151.147 160.252 169.245  0.00  0.00    +0.000 C 
ATOM     25  C6  UNL     1     152.260 161.261 169.440  0.00  0.00    +0.000 C 
ATOM     26  C7  UNL     1     153.568 160.456 169.316  0.00  0.00    +0.000 C 
BRANCH  21  28
ATOM     27  C1  UNL     1     155.677 160.829 170.951  0.00  0.00    +0.000 C 
ATOM     28  C2  UNL     1     154.772 159.686 171.284  0.00  0.00    +0.000 C 
ENDBRANCH  21  28
BRANCH  21  29
ATOM     29  C22 UNL     1     153.736 158.151 169.748  0.00  0.00    +0.000 C 
BRANCH  29  30
ATOM     30  C23 UNL     1     154.572 157.798 168.634  0.00  0.00    +0.000 C 
ATOM     31  C24 UNL     1     154.301 158.208 167.424  0.00  0.00    +0.000 C 
ATOM     32  C25 UNL     1     154.880 158.077 166.039  0.00  0.00    +0.000 C 
ATOM     33  C26 UNL     1     156.358 157.789 166.074  0.00  0.00    +0.000 C 
ATOM     34  C27 UNL     1     157.021 158.700 167.055  0.00  0.00    +0.000 C 
ATOM     35  C28 UNL     1     157.803 157.873 168.036  0.00  0.00    +0.000 C 
ATOM     36  C29 UNL     1     156.966 157.771 169.306  0.00  0.00    +0.000 C 
ATOM     37  C30 UNL     1     155.728 156.938 169.109  0.00  0.00    +0.000 C 
ENDBRANCH  29  30
ENDBRANCH  21  29
ENDBRANCH   1  24
TORSDOF 5
ENDMDL
MODEL 7
REMARK VINA RESULT:      -7.0      1.902      2.998
REMARK  Name = ./3D_structures\o44_MMV1580489_3D.pdb
REMARK  6 active torsions:
REMARK  status: ('A' for Active; 'I' for Inactive)
REMARK    1  A    between atoms: C1_1  and  C2_2
REMARK    2  A    between atoms: C2_2  and  N1_3
REMARK    3  A    between atoms: N1_3  and  C22_28
REMARK    4  A    between atoms: C5_6  and  N2_9
REMARK    5  A    between atoms: C8_10  and  C9_12
REMARK    6  A    between atoms: C22_28  and  C23_29
REMARK                            x       y       z     vdW  Elec       q    Type
REMARK                         _______ _______ _______ _____ _____    ______ ____
ROOT
ATOM      1  N2  UNL     1     153.217 162.672 168.014  0.00  0.00    +0.000 N 
ATOM      2  C8  UNL     1     152.535 162.105 166.892  0.00  0.00    +0.000 C 
ATOM      3  O1  UNL     1     152.475 160.864 166.772  0.00  0.00    +0.000 OA
ATOM      4  H15 UNL     1     153.251 163.709 168.086  0.00  0.00    +0.000 HD
ENDROOT
BRANCH   2   5
ATOM      5  C9  UNL     1     151.880 162.946 165.842  0.00  0.00    +0.000 C 
ATOM      6  C10 UNL     1     152.875 163.753 165.109  0.00  0.00    +0.000 A 
ATOM      7  C11 UNL     1     152.781 165.116 165.078  0.00  0.00    +0.000 A 
ATOM      8  O2  UNL     1     151.755 165.793 165.736  0.00  0.00    +0.000 OA
ATOM      9  C12 UNL     1     150.797 165.091 166.445  0.00  0.00    +0.000 A 
ATOM     10  C13 UNL     1     150.848 163.739 166.506  0.00  0.00    +0.000 A 
ATOM     11  C14 UNL     1     149.858 163.062 167.235  0.00  0.00    +0.000 A 
ATOM     12  C15 UNL     1     148.859 163.748 167.875  0.00  0.00    +0.000 A 
ATOM     13 CL1  UNL     1     147.636 162.845 168.785  0.00  0.00    +0.000 Cl
ATOM     14  C16 UNL     1     148.810 165.121 167.812  0.00  0.00    +0.000 A 
ATOM     15  C17 UNL     1     149.774 165.796 167.100  0.00  0.00    +0.000 A 
ATOM     16  C18 UNL     1     153.749 165.823 164.364  0.00  0.00    +0.000 A 
ATOM     17  C19 UNL     1     154.767 165.173 163.711  0.00  0.00    +0.000 A 
ATOM     18  C20 UNL     1     154.873 163.803 163.734  0.00  0.00    +0.000 A 
ATOM     19  C21 UNL     1     153.912 163.118 164.443  0.00  0.00    +0.000 A 
ATOM     20 CL2  UNL     1     156.162 162.933 162.911  0.00  0.00    +0.000 Cl
ENDBRANCH   2   5
BRANCH   1  24
ATOM     21  N1  UNL     1     154.963 160.825 171.474  0.00  0.00    +0.000 N 
ATOM     22  C3  UNL     1     153.694 161.606 171.424  0.00  0.00    +0.000 C 
ATOM     23  C4  UNL     1     152.951 161.450 170.148  0.00  0.00    +0.000 C 
ATOM     24  C5  UNL     1     153.831 161.808 168.997  0.00  0.00    +0.000 C 
ATOM     25  C6  UNL     1     155.082 162.428 169.584  0.00  0.00    +0.000 C 
ATOM     26  C7  UNL     1     155.754 161.304 170.396  0.00  0.00    +0.000 C 
BRANCH  21  28
ATOM     27  C1  UNL     1     155.017 160.179 173.867  0.00  0.00    +0.000 C 
ATOM     28  C2  UNL     1     155.463 161.133 172.804  0.00  0.00    +0.000 C 
ENDBRANCH  21  28
BRANCH  21  29
ATOM     29  C22 UNL     1     154.597 159.468 171.300  0.00  0.00    +0.000 C 
BRANCH  29  30
ATOM     30  C23 UNL     1     155.357 158.557 170.488  0.00  0.00    +0.000 C 
ATOM     31  C24 UNL     1     155.032 158.322 169.246  0.00  0.00    +0.000 C 
ATOM     32  C25 UNL     1     155.527 157.484 168.096  0.00  0.00    +0.000 C 
ATOM     33  C26 UNL     1     156.994 157.166 168.224  0.00  0.00    +0.000 C 
ATOM     34  C27 UNL     1     157.743 158.406 168.594  0.00  0.00    +0.000 C 
ATOM     35  C28 UNL     1     158.550 158.136 169.832  0.00  0.00    +0.000 C 
ATOM     36  C29 UNL     1     157.782 158.730 171.008  0.00  0.00    +0.000 C 
ATOM     37  C30 UNL     1     156.507 157.985 171.294  0.00  0.00    +0.000 C 
ENDBRANCH  29  30
ENDBRANCH  21  29
ENDBRANCH   1  24
TORSDOF 5
ENDMDL
MODEL 8
REMARK VINA RESULT:      -7.0      2.847      8.823
REMARK  Name = ./3D_structures\o44_MMV1580489_3D.pdb
REMARK  6 active torsions:
REMARK  status: ('A' for Active; 'I' for Inactive)
REMARK    1  A    between atoms: C1_1  and  C2_2
REMARK    2  A    between atoms: C2_2  and  N1_3
REMARK    3  A    between atoms: N1_3  and  C22_28
REMARK    4  A    between atoms: C5_6  and  N2_9
REMARK    5  A    between atoms: C8_10  and  C9_12
REMARK    6  A    between atoms: C22_28  and  C23_29
REMARK                            x       y       z     vdW  Elec       q    Type
REMARK                         _______ _______ _______ _____ _____    ______ ____
ROOT
ATOM      1  N2  UNL     1     154.478 160.998 168.256  0.00  0.00    +0.000 N 
ATOM      2  C8  UNL     1     153.843 159.806 168.725  0.00  0.00    +0.000 C 
ATOM      3  O1  UNL     1     152.657 159.578 168.413  0.00  0.00    +0.000 OA
ATOM      4  H15 UNL     1     155.467 161.161 168.533  0.00  0.00    +0.000 HD
ENDROOT
BRANCH   2   5
ATOM      5  C9  UNL     1     154.549 158.806 169.587  0.00  0.00    +0.000 C 
ATOM      6  C10 UNL     1     154.865 159.374 170.912  0.00  0.00    +0.000 A 
ATOM      7  C11 UNL     1     156.156 159.429 171.357  0.00  0.00    +0.000 A 
ATOM      8  O2  UNL     1     157.217 158.961 170.583  0.00  0.00    +0.000 OA
ATOM      9  C12 UNL     1     156.984 158.423 169.330  0.00  0.00    +0.000 A 
ATOM     10  C13 UNL     1     155.721 158.349 168.845  0.00  0.00    +0.000 A 
ATOM     11  C14 UNL     1     155.525 157.798 167.568  0.00  0.00    +0.000 A 
ATOM     12  C15 UNL     1     156.583 157.344 166.824  0.00  0.00    +0.000 A 
ATOM     13 CL1  UNL     1     156.279 156.660 165.219  0.00  0.00    +0.000 Cl
ATOM     14  C16 UNL     1     157.863 157.421 167.320  0.00  0.00    +0.000 A 
ATOM     15  C17 UNL     1     158.069 157.959 168.569  0.00  0.00    +0.000 A 
ATOM     16  C18 UNL     1     156.391 159.972 172.621  0.00  0.00    +0.000 A 
ATOM     17  C19 UNL     1     155.359 160.439 173.397  0.00  0.00    +0.000 A 
ATOM     18  C20 UNL     1     154.055 160.391 172.961  0.00  0.00    +0.000 A 
ATOM     19  C21 UNL     1     153.839 159.853 171.712  0.00  0.00    +0.000 A 
ATOM     20 CL2  UNL     1     152.706 160.979 173.923  0.00  0.00    +0.000 Cl
ENDBRANCH   2   5
BRANCH   1  24
ATOM     21  N1  UNL     1     153.059 163.773 165.303  0.00  0.00    +0.000 N 
ATOM     22  C3  UNL     1     153.756 162.479 165.050  0.00  0.00    +0.000 C 
ATOM     23  C4  UNL     1     153.441 161.430 166.052  0.00  0.00    +0.000 C 
ATOM     24  C5  UNL     1     153.745 161.927 167.426  0.00  0.00    +0.000 C 
ATOM     25  C6  UNL     1     154.489 163.236 167.258  0.00  0.00    +0.000 C 
ATOM     26  C7  UNL     1     153.485 164.195 166.590  0.00  0.00    +0.000 C 
BRANCH  21  28
ATOM     27  C1  UNL     1     154.263 163.839 163.137  0.00  0.00    +0.000 C 
ATOM     28  C2  UNL     1     153.515 164.592 164.191  0.00  0.00    +0.000 C 
ENDBRANCH  21  28
BRANCH  21  29
ATOM     29  C22 UNL     1     151.673 163.487 165.271  0.00  0.00    +0.000 C 
BRANCH  29  30
ATOM     30  C23 UNL     1     150.728 164.125 166.146  0.00  0.00    +0.000 C 
ATOM     31  C24 UNL     1     150.151 165.250 165.818  0.00  0.00    +0.000 C 
ATOM     32  C25 UNL     1     149.153 166.212 166.407  0.00  0.00    +0.000 C 
ATOM     33  C26 UNL     1     148.246 165.540 167.405  0.00  0.00    +0.000 C 
ATOM     34  C27 UNL     1     147.760 164.243 166.842  0.00  0.00    +0.000 C 
ATOM     35  C28 UNL     1     148.073 163.142 167.816  0.00  0.00    +0.000 C 
ATOM     36  C29 UNL     1     149.324 162.434 167.307  0.00  0.00    +0.000 C 
ATOM     37  C30 UNL     1     150.551 163.299 167.405  0.00  0.00    +0.000 C 
ENDBRANCH  29  30
ENDBRANCH  21  29
ENDBRANCH   1  24
TORSDOF 5
ENDMDL
MODEL 9
REMARK VINA RESULT:      -6.9      6.139      9.509
REMARK  Name = ./3D_structures\o44_MMV1580489_3D.pdb
REMARK  6 active torsions:
REMARK  status: ('A' for Active; 'I' for Inactive)
REMARK    1  A    between atoms: C1_1  and  C2_2
REMARK    2  A    between atoms: C2_2  and  N1_3
REMARK    3  A    between atoms: N1_3  and  C22_28
REMARK    4  A    between atoms: C5_6  and  N2_9
REMARK    5  A    between atoms: C8_10  and  C9_12
REMARK    6  A    between atoms: C22_28  and  C23_29
REMARK                            x       y       z     vdW  Elec       q    Type
REMARK                         _______ _______ _______ _____ _____    ______ ____
ROOT
ATOM      1  N2  UNL     1     160.465 158.167 167.232  0.00  0.00    +0.000 N 
ATOM      2  C8  UNL     1     159.490 159.213 167.252  0.00  0.00    +0.000 C 
ATOM      3  O1  UNL     1     159.862 160.397 167.389  0.00  0.00    +0.000 OA
ATOM      4  H15 UNL     1     160.125 157.191 167.117  0.00  0.00    +0.000 HD
ENDROOT
BRANCH   2   5
ATOM      5  C9  UNL     1     158.024 158.947 167.113  0.00  0.00    +0.000 C 
ATOM      6  C10 UNL     1     157.430 158.552 168.405  0.00  0.00    +0.000 A 
ATOM      7  C11 UNL     1     156.789 157.353 168.541  0.00  0.00    +0.000 A 
ATOM      8  O2  UNL     1     156.677 156.460 167.476  0.00  0.00    +0.000 OA
ATOM      9  C12 UNL     1     157.219 156.772 166.243  0.00  0.00    +0.000 A 
ATOM     10  C13 UNL     1     157.865 157.948 166.059  0.00  0.00    +0.000 A 
ATOM     11  C14 UNL     1     158.403 158.228 164.793  0.00  0.00    +0.000 A 
ATOM     12  C15 UNL     1     158.281 157.335 163.761  0.00  0.00    +0.000 A 
ATOM     13 CL1  UNL     1     158.980 157.737 162.184  0.00  0.00    +0.000 Cl
ATOM     14  C16 UNL     1     157.625 156.142 163.950  0.00  0.00    +0.000 A 
ATOM     15  C17 UNL     1     157.093 155.855 165.186  0.00  0.00    +0.000 A 
ATOM     16  C18 UNL     1     156.243 157.039 169.786  0.00  0.00    +0.000 A 
ATOM     17  C19 UNL     1     156.345 157.906 170.846  0.00  0.00    +0.000 A 
ATOM     18  C20 UNL     1     156.988 159.115 170.724  0.00  0.00    +0.000 A 
ATOM     19  C21 UNL     1     157.522 159.412 169.490  0.00  0.00    +0.000 A 
ATOM     20 CL2  UNL     1     157.141 160.252 172.057  0.00  0.00    +0.000 Cl
ENDBRANCH   2   5
BRANCH   1  24
ATOM     21  N1  UNL     1     164.740 158.493 166.997  0.00  0.00    +0.000 N 
ATOM     22  C3  UNL     1     163.780 158.499 165.855  0.00  0.00    +0.000 C 
ATOM     23  C4  UNL     1     162.480 159.140 166.177  0.00  0.00    +0.000 C 
ATOM     24  C5  UNL     1     161.869 158.486 167.370  0.00  0.00    +0.000 C 
ATOM     25  C6  UNL     1     162.697 157.251 167.660  0.00  0.00    +0.000 C 
ATOM     26  C7  UNL     1     164.095 157.776 168.039  0.00  0.00    +0.000 C 
BRANCH  21  28
ATOM     27  C1  UNL     1     165.603 156.965 165.245  0.00  0.00    +0.000 C 
ATOM     28  C2  UNL     1     165.906 157.845 166.417  0.00  0.00    +0.000 C 
ENDBRANCH  21  28
BRANCH  21  29
ATOM     29  C22 UNL     1     164.952 159.850 167.340  0.00  0.00    +0.000 C 
BRANCH  29  30
ATOM     30  C23 UNL     1     165.092 160.295 168.700  0.00  0.00    +0.000 C 
ATOM     31  C24 UNL     1     166.060 159.860 169.460  0.00  0.00    +0.000 C 
ATOM     32  C25 UNL     1     166.552 160.055 170.870  0.00  0.00    +0.000 C 
ATOM     33  C26 UNL     1     166.126 161.384 171.436  0.00  0.00    +0.000 C 
ATOM     34  C27 UNL     1     166.373 162.458 170.426  0.00  0.00    +0.000 C 
ATOM     35  C28 UNL     1     165.097 163.218 170.201  0.00  0.00    +0.000 C 
ATOM     36  C29 UNL     1     164.486 162.697 168.905  0.00  0.00    +0.000 C 
ATOM     37  C30 UNL     1     163.991 161.282 169.035  0.00  0.00    +0.000 C 
ENDBRANCH  29  30
ENDBRANCH  21  29
ENDBRANCH   1  24
TORSDOF 5
ENDMDL
