MODEL 1
REMARK VINA RESULT:      -5.3      0.000      0.000
REMARK  Name = ./3D_structures\o46_MMV1782115_3D.pdb
REMARK  3 active torsions:
REMARK  status: ('A' for Active; 'I' for Inactive)
REMARK    1  A    between atoms: C3_5  and  C4_6
REMARK    2  A    between atoms: C11_15  and  O2_17
REMARK    3  A    between atoms: O2_17  and  C13_18
REMARK                            x       y       z     vdW  Elec       q    Type
REMARK                         _______ _______ _______ _____ _____    ______ ____
ROOT
ATOM      1  S1  UNL     1     148.448 164.922 166.828  0.00  0.00    +0.000 S 
ATOM      2  C1  UNL     1     147.821 163.374 167.315  0.00  0.00    +0.000 A 
ATOM      3  C2  UNL     1     146.448 163.438 167.075  0.00  0.00    +0.000 A 
ATOM      4  N1  UNL     1     145.612 162.288 167.381  0.00  0.00    +0.000 N 
ATOM      5  C3  UNL     1     145.857 160.948 167.716  0.00  0.00    +0.000 C 
ATOM      6  C4  UNL     1     144.786 160.093 167.016  0.00  0.00    +0.000 C 
ATOM      7  C5  UNL     1     147.150 160.314 167.467  0.00  0.00    +0.000 C 
ATOM      8  N2  UNL     1     148.307 160.951 168.009  0.00  0.00    +0.000 N 
ATOM      9  C6  UNL     1     148.667 162.310 167.854  0.00  0.00    +0.000 C 
ATOM     10  O1  UNL     1     149.814 162.699 168.192  0.00  0.00    +0.000 OA
ATOM     11  C7  UNL     1     145.998 164.600 166.563  0.00  0.00    +0.000 A 
ATOM     12  C8  UNL     1     146.837 165.611 166.311  0.00  0.00    +0.000 A 
ATOM     13  C9  UNL     1     146.502 166.848 165.790  0.00  0.00    +0.000 A 
ATOM     14  C10 UNL     1     145.173 167.120 165.476  0.00  0.00    +0.000 A 
ATOM     15  C11 UNL     1     144.284 166.105 165.722  0.00  0.00    +0.000 A 
ATOM     16  C12 UNL     1     144.644 164.907 166.232  0.00  0.00    +0.000 A 
ATOM     17  H1  UNL     1     144.592 162.517 167.343  0.00  0.00    +0.000 HD
ATOM     18  H8  UNL     1     148.975 160.388 168.582  0.00  0.00    +0.000 HD
ENDROOT
BRANCH  15  19
ATOM     19  O2  UNL     1     142.926 166.339 165.419  0.00  0.00    +0.000 OA
ATOM     20  C13 UNL     1     142.109 165.258 165.023  0.00  0.00    +0.000 C 
ENDBRANCH  15  19
TORSDOF 1
ENDMDL
MODEL 2
REMARK VINA RESULT:      -5.3      2.032      5.311
REMARK  Name = ./3D_structures\o46_MMV1782115_3D.pdb
REMARK  3 active torsions:
REMARK  status: ('A' for Active; 'I' for Inactive)
REMARK    1  A    between atoms: C3_5  and  C4_6
REMARK    2  A    between atoms: C11_15  and  O2_17
REMARK    3  A    between atoms: O2_17  and  C13_18
REMARK                            x       y       z     vdW  Elec       q    Type
REMARK                         _______ _______ _______ _____ _____    ______ ____
ROOT
ATOM      1  S1  UNL     1     148.010 165.712 167.087  0.00  0.00    +0.000 S 
ATOM      2  C1  UNL     1     146.454 165.587 166.322  0.00  0.00    +0.000 A 
ATOM      3  C2  UNL     1     146.085 164.248 166.448  0.00  0.00    +0.000 A 
ATOM      4  N1  UNL     1     144.813 163.799 165.903  0.00  0.00    +0.000 N 
ATOM      5  C3  UNL     1     143.674 164.441 165.393  0.00  0.00    +0.000 C 
ATOM      6  C4  UNL     1     142.445 163.641 165.862  0.00  0.00    +0.000 C 
ATOM      7  C5  UNL     1     143.400 165.852 165.656  0.00  0.00    +0.000 C 
ATOM      8  N2  UNL     1     144.420 166.791 165.319  0.00  0.00    +0.000 N 
ATOM      9  C6  UNL     1     145.779 166.730 165.706  0.00  0.00    +0.000 C 
ATOM     10  O1  UNL     1     146.528 167.724 165.531  0.00  0.00    +0.000 OA
ATOM     11  C7  UNL     1     146.968 163.456 167.087  0.00  0.00    +0.000 A 
ATOM     12  C8  UNL     1     148.117 163.950 167.559  0.00  0.00    +0.000 A 
ATOM     13  C9  UNL     1     149.102 163.246 168.229  0.00  0.00    +0.000 A 
ATOM     14  C10 UNL     1     148.930 161.884 168.462  0.00  0.00    +0.000 A 
ATOM     15  C11 UNL     1     147.761 161.344 167.992  0.00  0.00    +0.000 A 
ATOM     16  C12 UNL     1     146.818 162.060 167.341  0.00  0.00    +0.000 A 
ATOM     17  H1  UNL     1     144.734 162.757 165.886  0.00  0.00    +0.000 HD
ATOM     18  H8  UNL     1     144.174 167.618 164.728  0.00  0.00    +0.000 HD
ENDROOT
BRANCH  15  19
ATOM     19  O2  UNL     1     147.546 159.966 168.206  0.00  0.00    +0.000 OA
ATOM     20  C13 UNL     1     146.719 159.247 167.317  0.00  0.00    +0.000 C 
ENDBRANCH  15  19
TORSDOF 1
ENDMDL
MODEL 3
REMARK VINA RESULT:      -5.2      8.194     10.578
REMARK  Name = ./3D_structures\o46_MMV1782115_3D.pdb
REMARK  3 active torsions:
REMARK  status: ('A' for Active; 'I' for Inactive)
REMARK    1  A    between atoms: C3_5  and  C4_6
REMARK    2  A    between atoms: C11_15  and  O2_17
REMARK    3  A    between atoms: O2_17  and  C13_18
REMARK                            x       y       z     vdW  Elec       q    Type
REMARK                         _______ _______ _______ _____ _____    ______ ____
ROOT
ATOM      1  S1  UNL     1     155.927 159.601 171.885  0.00  0.00    +0.000 S 
ATOM      2  C1  UNL     1     156.211 158.716 170.415  0.00  0.00    +0.000 A 
ATOM      3  C2  UNL     1     154.962 158.600 169.805  0.00  0.00    +0.000 A 
ATOM      4  N1  UNL     1     154.845 157.900 168.534  0.00  0.00    +0.000 N 
ATOM      5  C3  UNL     1     155.758 157.420 167.583  0.00  0.00    +0.000 C 
ATOM      6  C4  UNL     1     155.146 157.666 166.192  0.00  0.00    +0.000 C 
ATOM      7  C5  UNL     1     157.142 157.885 167.537  0.00  0.00    +0.000 C 
ATOM      8  N2  UNL     1     157.910 157.775 168.735  0.00  0.00    +0.000 N 
ATOM      9  C6  UNL     1     157.537 158.244 170.017  0.00  0.00    +0.000 C 
ATOM     10  O1  UNL     1     158.386 158.283 170.943  0.00  0.00    +0.000 OA
ATOM     11  C7  UNL     1     153.933 159.166 170.466  0.00  0.00    +0.000 A 
ATOM     12  C8  UNL     1     154.128 159.792 171.632  0.00  0.00    +0.000 A 
ATOM     13  C9  UNL     1     153.161 160.409 172.406  0.00  0.00    +0.000 A 
ATOM     14  C10 UNL     1     151.837 160.409 171.974  0.00  0.00    +0.000 A 
ATOM     15  C11 UNL     1     151.601 159.776 170.781  0.00  0.00    +0.000 A 
ATOM     16  C12 UNL     1     152.570 159.182 170.048  0.00  0.00    +0.000 A 
ATOM     17  H1  UNL     1     153.850 157.712 168.276  0.00  0.00    +0.000 HD
ATOM     18  H8  UNL     1     158.844 157.308 168.699  0.00  0.00    +0.000 HD
ENDROOT
BRANCH  15  19
ATOM     19  O2  UNL     1     150.273 159.752 170.306  0.00  0.00    +0.000 OA
ATOM     20  C13 UNL     1     149.788 158.592 169.664  0.00  0.00    +0.000 C 
ENDBRANCH  15  19
TORSDOF 1
ENDMDL
MODEL 4
REMARK VINA RESULT:      -5.1     12.544     14.377
REMARK  Name = ./3D_structures\o46_MMV1782115_3D.pdb
REMARK  3 active torsions:
REMARK  status: ('A' for Active; 'I' for Inactive)
REMARK    1  A    between atoms: C3_5  and  C4_6
REMARK    2  A    between atoms: C11_15  and  O2_17
REMARK    3  A    between atoms: O2_17  and  C13_18
REMARK                            x       y       z     vdW  Elec       q    Type
REMARK                         _______ _______ _______ _____ _____    ______ ____
ROOT
ATOM      1  S1  UNL     1     156.475 156.871 166.017  0.00  0.00    +0.000 S 
ATOM      2  C1  UNL     1     158.156 157.260 165.801  0.00  0.00    +0.000 A 
ATOM      3  C2  UNL     1     158.607 157.664 167.058  0.00  0.00    +0.000 A 
ATOM      4  N1  UNL     1     159.995 158.066 167.227  0.00  0.00    +0.000 N 
ATOM      5  C3  UNL     1     161.152 157.982 166.437  0.00  0.00    +0.000 C 
ATOM      6  C4  UNL     1     162.329 157.666 167.378  0.00  0.00    +0.000 C 
ATOM      7  C5  UNL     1     161.246 157.069 165.301  0.00  0.00    +0.000 C 
ATOM      8  N2  UNL     1     160.235 157.165 164.298  0.00  0.00    +0.000 N 
ATOM      9  C6  UNL     1     158.837 157.145 164.512  0.00  0.00    +0.000 C 
ATOM     10  O1  UNL     1     158.053 157.017 163.537  0.00  0.00    +0.000 OA
ATOM     11  C7  UNL     1     157.688 157.648 168.042  0.00  0.00    +0.000 A 
ATOM     12  C8  UNL     1     156.429 157.264 167.801  0.00  0.00    +0.000 A 
ATOM     13  C9  UNL     1     155.397 157.203 168.720  0.00  0.00    +0.000 A 
ATOM     14  C10 UNL     1     155.637 157.567 170.042  0.00  0.00    +0.000 A 
ATOM     15  C11 UNL     1     156.917 157.966 170.326  0.00  0.00    +0.000 A 
ATOM     16  C12 UNL     1     157.904 158.014 169.404  0.00  0.00    +0.000 A 
ATOM     17  H1  UNL     1     160.165 158.527 168.150  0.00  0.00    +0.000 HD
ATOM     18  H8  UNL     1     160.519 157.260 163.297  0.00  0.00    +0.000 HD
ENDROOT
BRANCH  15  19
ATOM     19  O2  UNL     1     157.204 158.344 171.654  0.00  0.00    +0.000 OA
ATOM     20  C13 UNL     1     156.254 159.093 172.382  0.00  0.00    +0.000 C 
ENDBRANCH  15  19
TORSDOF 1
ENDMDL
MODEL 5
REMARK VINA RESULT:      -5.1      3.218      5.577
REMARK  Name = ./3D_structures\o46_MMV1782115_3D.pdb
REMARK  3 active torsions:
REMARK  status: ('A' for Active; 'I' for Inactive)
REMARK    1  A    between atoms: C3_5  and  C4_6
REMARK    2  A    between atoms: C11_15  and  O2_17
REMARK    3  A    between atoms: O2_17  and  C13_18
REMARK                            x       y       z     vdW  Elec       q    Type
REMARK                         _______ _______ _______ _____ _____    ______ ____
ROOT
ATOM      1  S1  UNL     1     149.020 162.516 167.947  0.00  0.00    +0.000 S 
ATOM      2  C1  UNL     1     147.634 163.557 167.819  0.00  0.00    +0.000 A 
ATOM      3  C2  UNL     1     148.054 164.641 167.048  0.00  0.00    +0.000 A 
ATOM      4  N1  UNL     1     147.119 165.714 166.748  0.00  0.00    +0.000 N 
ATOM      5  C3  UNL     1     145.733 165.886 166.888  0.00  0.00    +0.000 C 
ATOM      6  C4  UNL     1     145.238 166.662 165.654  0.00  0.00    +0.000 C 
ATOM      7  C5  UNL     1     144.830 164.754 167.080  0.00  0.00    +0.000 C 
ATOM      8  N2  UNL     1     145.109 163.871 168.166  0.00  0.00    +0.000 N 
ATOM      9  C6  UNL     1     146.348 163.245 168.442  0.00  0.00    +0.000 C 
ATOM     10  O1  UNL     1     146.410 162.323 169.294  0.00  0.00    +0.000 OA
ATOM     11  C7  UNL     1     149.335 164.601 166.631  0.00  0.00    +0.000 A 
ATOM     12  C8  UNL     1     150.129 163.574 166.953  0.00  0.00    +0.000 A 
ATOM     13  C9  UNL     1     151.455 163.415 166.590  0.00  0.00    +0.000 A 
ATOM     14  C10 UNL     1     152.073 164.391 165.813  0.00  0.00    +0.000 A 
ATOM     15  C11 UNL     1     151.287 165.459 165.464  0.00  0.00    +0.000 A 
ATOM     16  C12 UNL     1     149.993 165.584 165.835  0.00  0.00    +0.000 A 
ATOM     17  H1  UNL     1     147.593 166.550 166.336  0.00  0.00    +0.000 HD
ATOM     18  H8  UNL     1     144.347 163.641 168.843  0.00  0.00    +0.000 HD
ENDROOT
BRANCH  15  19
ATOM     19  O2  UNL     1     151.873 166.472 164.677  0.00  0.00    +0.000 OA
ATOM     20  C13 UNL     1     152.969 167.200 165.190  0.00  0.00    +0.000 C 
ENDBRANCH  15  19
TORSDOF 1
ENDMDL
MODEL 6
REMARK VINA RESULT:      -5.1      8.760     11.249
REMARK  Name = ./3D_structures\o46_MMV1782115_3D.pdb
REMARK  3 active torsions:
REMARK  status: ('A' for Active; 'I' for Inactive)
REMARK    1  A    between atoms: C3_5  and  C4_6
REMARK    2  A    between atoms: C11_15  and  O2_17
REMARK    3  A    between atoms: O2_17  and  C13_18
REMARK                            x       y       z     vdW  Elec       q    Type
REMARK                         _______ _______ _______ _____ _____    ______ ____
ROOT
ATOM      1  S1  UNL     1     156.278 159.307 171.355  0.00  0.00    +0.000 S 
ATOM      2  C1  UNL     1     154.569 159.618 171.284  0.00  0.00    +0.000 A 
ATOM      3  C2  UNL     1     154.138 159.048 170.087  0.00  0.00    +0.000 A 
ATOM      4  N1  UNL     1     152.734 159.133 169.715  0.00  0.00    +0.000 N 
ATOM      5  C3  UNL     1     151.557 159.514 170.379  0.00  0.00    +0.000 C 
ATOM      6  C4  UNL     1     150.437 158.567 169.909  0.00  0.00    +0.000 C 
ATOM      7  C5  UNL     1     151.481 159.587 171.836  0.00  0.00    +0.000 C 
ATOM      8  N2  UNL     1     152.448 160.399 172.502  0.00  0.00    +0.000 N 
ATOM      9  C6  UNL     1     153.851 160.343 172.333  0.00  0.00    +0.000 C 
ATOM     10  O1  UNL     1     154.606 160.955 173.130  0.00  0.00    +0.000 OA
ATOM     11  C7  UNL     1     155.091 158.446 169.349  0.00  0.00    +0.000 A 
ATOM     12  C8  UNL     1     156.362 158.413 169.764  0.00  0.00    +0.000 A 
ATOM     13  C9  UNL     1     157.428 157.830 169.103  0.00  0.00    +0.000 A 
ATOM     14  C10 UNL     1     157.213 157.201 167.879  0.00  0.00    +0.000 A 
ATOM     15  C11 UNL     1     155.920 157.216 167.423  0.00  0.00    +0.000 A 
ATOM     16  C12 UNL     1     154.900 157.794 168.094  0.00  0.00    +0.000 A 
ATOM     17  H1  UNL     1     152.567 158.847 168.724  0.00  0.00    +0.000 HD
ATOM     18  H8  UNL     1     152.122 161.116 173.188  0.00  0.00    +0.000 HD
ENDROOT
BRANCH  15  19
ATOM     19  O2  UNL     1     155.657 156.590 166.186  0.00  0.00    +0.000 OA
ATOM     20  C13 UNL     1     156.736 156.212 165.358  0.00  0.00    +0.000 C 
ENDBRANCH  15  19
TORSDOF 1
ENDMDL
MODEL 7
REMARK VINA RESULT:      -4.9     11.220     14.234
REMARK  Name = ./3D_structures\o46_MMV1782115_3D.pdb
REMARK  3 active torsions:
REMARK  status: ('A' for Active; 'I' for Inactive)
REMARK    1  A    between atoms: C3_5  and  C4_6
REMARK    2  A    between atoms: C11_15  and  O2_17
REMARK    3  A    between atoms: O2_17  and  C13_18
REMARK                            x       y       z     vdW  Elec       q    Type
REMARK                         _______ _______ _______ _____ _____    ______ ____
ROOT
ATOM      1  S1  UNL     1     156.546 157.071 166.600  0.00  0.00    +0.000 S 
ATOM      2  C1  UNL     1     156.234 157.652 168.209  0.00  0.00    +0.000 A 
ATOM      3  C2  UNL     1     157.469 158.079 168.696  0.00  0.00    +0.000 A 
ATOM      4  N1  UNL     1     157.561 158.629 170.039  0.00  0.00    +0.000 N 
ATOM      5  C3  UNL     1     156.629 159.049 171.001  0.00  0.00    +0.000 C 
ATOM      6  C4  UNL     1     157.209 160.298 171.690  0.00  0.00    +0.000 C 
ATOM      7  C5  UNL     1     155.243 159.349 170.654  0.00  0.00    +0.000 C 
ATOM      8  N2  UNL     1     154.502 158.333 169.978  0.00  0.00    +0.000 N 
ATOM      9  C6  UNL     1     154.901 157.638 168.812  0.00  0.00    +0.000 C 
ATOM     10  O1  UNL     1     154.073 156.925 168.191  0.00  0.00    +0.000 OA
ATOM     11  C7  UNL     1     158.510 157.941 167.851  0.00  0.00    +0.000 A 
ATOM     12  C8  UNL     1     158.339 157.423 166.629  0.00  0.00    +0.000 A 
ATOM     13  C9  UNL     1     159.320 157.229 165.673  0.00  0.00    +0.000 A 
ATOM     14  C10 UNL     1     160.634 157.592 165.958  0.00  0.00    +0.000 A 
ATOM     15  C11 UNL     1     160.846 158.126 167.203  0.00  0.00    +0.000 A 
ATOM     16  C12 UNL     1     159.864 158.303 168.115  0.00  0.00    +0.000 A 
ATOM     17  H1  UNL     1     158.551 158.732 170.359  0.00  0.00    +0.000 HD
ATOM     18  H8  UNL     1     153.570 158.048 170.354  0.00  0.00    +0.000 HD
ENDROOT
BRANCH  15  19
ATOM     19  O2  UNL     1     162.163 158.507 167.534  0.00  0.00    +0.000 OA
ATOM     20  C13 UNL     1     163.182 157.530 167.556  0.00  0.00    +0.000 C 
ENDBRANCH  15  19
TORSDOF 1
ENDMDL
MODEL 8
REMARK VINA RESULT:      -4.8      3.523      6.691
REMARK  Name = ./3D_structures\o46_MMV1782115_3D.pdb
REMARK  3 active torsions:
REMARK  status: ('A' for Active; 'I' for Inactive)
REMARK    1  A    between atoms: C3_5  and  C4_6
REMARK    2  A    between atoms: C11_15  and  O2_17
REMARK    3  A    between atoms: O2_17  and  C13_18
REMARK                            x       y       z     vdW  Elec       q    Type
REMARK                         _______ _______ _______ _____ _____    ______ ____
ROOT
ATOM      1  S1  UNL     1     152.020 163.505 166.687  0.00  0.00    +0.000 S 
ATOM      2  C1  UNL     1     150.415 164.151 166.508  0.00  0.00    +0.000 A 
ATOM      3  C2  UNL     1     149.583 163.271 167.199  0.00  0.00    +0.000 A 
ATOM      4  N1  UNL     1     148.151 163.524 167.247  0.00  0.00    +0.000 N 
ATOM      5  C3  UNL     1     147.327 164.607 166.904  0.00  0.00    +0.000 C 
ATOM      6  C4  UNL     1     146.213 164.692 167.964  0.00  0.00    +0.000 C 
ATOM      7  C5  UNL     1     147.859 165.955 166.724  0.00  0.00    +0.000 C 
ATOM      8  N2  UNL     1     148.929 166.118 165.794  0.00  0.00    +0.000 N 
ATOM      9  C6  UNL     1     150.132 165.375 165.759  0.00  0.00    +0.000 C 
ATOM     10  O1  UNL     1     151.085 165.755 165.034  0.00  0.00    +0.000 OA
ATOM     11  C7  UNL     1     150.196 162.224 167.785  0.00  0.00    +0.000 A 
ATOM     12  C8  UNL     1     151.521 162.064 167.692  0.00  0.00    +0.000 A 
ATOM     13  C9  UNL     1     152.267 161.038 168.245  0.00  0.00    +0.000 A 
ATOM     14  C10 UNL     1     151.624 160.046 168.981  0.00  0.00    +0.000 A 
ATOM     15  C11 UNL     1     150.265 160.178 169.097  0.00  0.00    +0.000 A 
ATOM     16  C12 UNL     1     149.565 161.194 168.544  0.00  0.00    +0.000 A 
ATOM     17  H1  UNL     1     147.616 162.708 167.620  0.00  0.00    +0.000 HD
ATOM     18  H8  UNL     1     148.850 166.849 165.051  0.00  0.00    +0.000 HD
ENDROOT
BRANCH  15  19
ATOM     19  O2  UNL     1     149.574 159.194 169.834  0.00  0.00    +0.000 OA
ATOM     20  C13 UNL     1     150.206 157.961 170.107  0.00  0.00    +0.000 C 
ENDBRANCH  15  19
TORSDOF 1
ENDMDL
MODEL 9
REMARK VINA RESULT:      -4.8     22.524     24.232
REMARK  Name = ./3D_structures\o46_MMV1782115_3D.pdb
REMARK  3 active torsions:
REMARK  status: ('A' for Active; 'I' for Inactive)
REMARK    1  A    between atoms: C3_5  and  C4_6
REMARK    2  A    between atoms: C11_15  and  O2_17
REMARK    3  A    between atoms: O2_17  and  C13_18
REMARK                            x       y       z     vdW  Elec       q    Type
REMARK                         _______ _______ _______ _____ _____    ______ ____
ROOT
ATOM      1  S1  UNL     1     161.399 144.607 167.708  0.00  0.00    +0.000 S 
ATOM      2  C1  UNL     1     161.797 144.402 169.388  0.00  0.00    +0.000 A 
ATOM      3  C2  UNL     1     162.238 145.653 169.820  0.00  0.00    +0.000 A 
ATOM      4  N1  UNL     1     162.656 145.829 171.202  0.00  0.00    +0.000 N 
ATOM      5  C3  UNL     1     162.562 145.057 172.370  0.00  0.00    +0.000 C 
ATOM      6  C4  UNL     1     162.280 146.020 173.538  0.00  0.00    +0.000 C 
ATOM      7  C5  UNL     1     161.620 143.947 172.487  0.00  0.00    +0.000 C 
ATOM      8  N2  UNL     1     161.680 142.929 171.488  0.00  0.00    +0.000 N 
ATOM      9  C6  UNL     1     161.654 143.125 170.087  0.00  0.00    +0.000 C 
ATOM     10  O1  UNL     1     161.494 142.144 169.318  0.00  0.00    +0.000 OA
ATOM     11  C7  UNL     1     162.239 146.626 168.888  0.00  0.00    +0.000 A 
ATOM     12  C8  UNL     1     161.838 146.379 167.636  0.00  0.00    +0.000 A 
ATOM     13  C9  UNL     1     161.793 147.286 166.593  0.00  0.00    +0.000 A 
ATOM     14  C10 UNL     1     162.193 148.601 166.812  0.00  0.00    +0.000 A 
ATOM     15  C11 UNL     1     162.611 148.891 168.085  0.00  0.00    +0.000 A 
ATOM     16  C12 UNL     1     162.643 147.980 169.084  0.00  0.00    +0.000 A 
ATOM     17  H1  UNL     1     163.142 146.742 171.356  0.00  0.00    +0.000 HD
ATOM     18  H8  UNL     1     161.752 141.929 171.784  0.00  0.00    +0.000 HD
ENDROOT
BRANCH  15  19
ATOM     19  O2  UNL     1     163.025 150.212 168.352  0.00  0.00    +0.000 OA
ATOM     20  C13 UNL     1     163.383 150.574 169.669  0.00  0.00    +0.000 C 
ENDBRANCH  15  19
TORSDOF 1
ENDMDL
