MODEL 1
REMARK VINA RESULT:      -7.1      0.000      0.000
REMARK  Name = ./3D_structures\o47_MMV1782114_3D.pdb
REMARK  3 active torsions:
REMARK  status: ('A' for Active; 'I' for Inactive)
REMARK    1  A    between atoms: C1_2  and  C2_5
REMARK    2  A    between atoms: C5_8  and  C8_11
REMARK    3  A    between atoms: N1_13  and  N2_14
REMARK                            x       y       z     vdW  Elec       q    Type
REMARK                         _______ _______ _______ _____ _____    ______ ____
ROOT
ATOM      1  C8  UNL     1     152.252 160.406 168.011  0.00  0.00    +0.000 C 
ATOM      2  O1  UNL     1     151.925 160.649 169.206  0.00  0.00    +0.000 OA
ATOM      3  N1  UNL     1     151.500 161.153 167.040  0.00  0.00    +0.000 N 
ATOM      4  H5  UNL     1     151.732 161.036 166.044  0.00  0.00    +0.000 HD
ENDROOT
BRANCH   3   5
ATOM      5  N2  UNL     1     150.472 162.028 167.473  0.00  0.00    +0.000 N 
ATOM      6  C9  UNL     1     149.096 161.612 167.637  0.00  0.00    +0.000 C 
ATOM      7  O2  UNL     1     148.547 160.711 166.976  0.00  0.00    +0.000 OA
ATOM      8  C10 UNL     1     148.536 162.433 168.682  0.00  0.00    +0.000 C 
ATOM      9  C11 UNL     1     147.151 162.951 168.420  0.00  0.00    +0.000 C 
ATOM     10  C12 UNL     1     147.143 164.020 167.356  0.00  0.00    +0.000 C 
ATOM     11  C13 UNL     1     147.976 165.026 167.602  0.00  0.00    +0.000 C 
ATOM     12  C14 UNL     1     148.749 164.888 168.865  0.00  0.00    +0.000 C 
ATOM     13  C15 UNL     1     147.700 164.851 169.977  0.00  0.00    +0.000 C 
ATOM     14  C16 UNL     1     146.281 165.063 169.690  0.00  0.00    +0.000 C 
ATOM     15  C17 UNL     1     146.735 163.663 169.698  0.00  0.00    +0.000 C 
ATOM     16  C18 UNL     1     149.475 163.592 168.907  0.00  0.00    +0.000 C 
ATOM     17  C19 UNL     1     150.495 163.395 167.837  0.00  0.00    +0.000 C 
ATOM     18  O3  UNL     1     151.277 164.260 167.313  0.00  0.00    +0.000 OA
ENDBRANCH   3   5
BRANCH   1  22
ATOM     19  C2  UNL     1     155.360 157.799 166.798  0.00  0.00    +0.000 A 
ATOM     20  C3  UNL     1     154.839 158.767 165.964  0.00  0.00    +0.000 A 
ATOM     21  C4  UNL     1     153.830 159.564 166.394  0.00  0.00    +0.000 A 
ATOM     22  C5  UNL     1     153.269 159.464 167.662  0.00  0.00    +0.000 A 
ATOM     23  C6  UNL     1     153.776 158.508 168.492  0.00  0.00    +0.000 A 
ATOM     24  C7  UNL     1     154.816 157.678 168.067  0.00  0.00    +0.000 A 
BRANCH  19  26
ATOM     25  F1  UNL     1     157.489 157.826 165.821  0.00  0.00    +0.000 F 
ATOM     26  C1  UNL     1     156.482 156.977 166.308  0.00  0.00    +0.000 C 
ATOM     27  F2  UNL     1     157.080 156.293 167.352  0.00  0.00    +0.000 F 
ATOM     28  F3  UNL     1     156.136 156.142 165.282  0.00  0.00    +0.000 F 
ENDBRANCH  19  26
ENDBRANCH   1  22
TORSDOF 3
ENDMDL
MODEL 2
REMARK VINA RESULT:      -6.9      6.191      7.615
REMARK  Name = ./3D_structures\o47_MMV1782114_3D.pdb
REMARK  3 active torsions:
REMARK  status: ('A' for Active; 'I' for Inactive)
REMARK    1  A    between atoms: C1_2  and  C2_5
REMARK    2  A    between atoms: C5_8  and  C8_11
REMARK    3  A    between atoms: N1_13  and  N2_14
REMARK                            x       y       z     vdW  Elec       q    Type
REMARK                         _______ _______ _______ _____ _____    ______ ____
ROOT
ATOM      1  C8  UNL     1     157.735 157.677 167.337  0.00  0.00    +0.000 C 
ATOM      2  O1  UNL     1     158.126 158.869 167.478  0.00  0.00    +0.000 OA
ATOM      3  N1  UNL     1     156.871 157.221 168.391  0.00  0.00    +0.000 N 
ATOM      4  H5  UNL     1     156.482 156.270 168.330  0.00  0.00    +0.000 HD
ENDROOT
BRANCH   3   5
ATOM      5  N2  UNL     1     156.575 158.084 169.476  0.00  0.00    +0.000 N 
ATOM      6  C9  UNL     1     155.418 158.953 169.504  0.00  0.00    +0.000 C 
ATOM      7  O2  UNL     1     154.880 159.446 168.495  0.00  0.00    +0.000 OA
ATOM      8  C10 UNL     1     155.049 159.108 170.889  0.00  0.00    +0.000 C 
ATOM      9  C11 UNL     1     154.683 160.504 171.305  0.00  0.00    +0.000 C 
ATOM     10  C12 UNL     1     155.889 161.409 171.358  0.00  0.00    +0.000 C 
ATOM     11  C13 UNL     1     156.875 160.942 172.117  0.00  0.00    +0.000 C 
ATOM     12  C14 UNL     1     156.592 159.625 172.749  0.00  0.00    +0.000 C 
ATOM     13  C15 UNL     1     155.370 159.858 173.638  0.00  0.00    +0.000 C 
ATOM     14  C16 UNL     1     154.809 161.198 173.821  0.00  0.00    +0.000 C 
ATOM     15  C17 UNL     1     154.211 160.389 172.746  0.00  0.00    +0.000 C 
ATOM     16  C18 UNL     1     156.203 158.617 171.728  0.00  0.00    +0.000 C 
ATOM     17  C19 UNL     1     157.242 158.310 170.703  0.00  0.00    +0.000 C 
ATOM     18  O3  UNL     1     158.510 158.243 170.850  0.00  0.00    +0.000 OA
ENDBRANCH   3   5
BRANCH   1  22
ATOM     19  C2  UNL     1     158.641 155.249 163.988  0.00  0.00    +0.000 A 
ATOM     20  C3  UNL     1     157.397 155.251 164.586  0.00  0.00    +0.000 A 
ATOM     21  C4  UNL     1     157.163 156.032 165.668  0.00  0.00    +0.000 A 
ATOM     22  C5  UNL     1     158.129 156.857 166.234  0.00  0.00    +0.000 A 
ATOM     23  C6  UNL     1     159.362 156.860 165.652  0.00  0.00    +0.000 A 
ATOM     24  C7  UNL     1     159.622 156.061 164.536  0.00  0.00    +0.000 A 
BRANCH  19  26
ATOM     25  F1  UNL     1     158.022 153.281 162.879  0.00  0.00    +0.000 F 
ATOM     26  C1  UNL     1     158.846 154.415 162.790  0.00  0.00    +0.000 C 
ATOM     27  F2  UNL     1     158.407 155.073 161.655  0.00  0.00    +0.000 F 
ATOM     28  F3  UNL     1     160.130 153.963 162.655  0.00  0.00    +0.000 F 
ENDBRANCH  19  26
ENDBRANCH   1  22
TORSDOF 3
ENDMDL
MODEL 3
REMARK VINA RESULT:      -6.7     19.319     23.464
REMARK  Name = ./3D_structures\o47_MMV1782114_3D.pdb
REMARK  3 active torsions:
REMARK  status: ('A' for Active; 'I' for Inactive)
REMARK    1  A    between atoms: C1_2  and  C2_5
REMARK    2  A    between atoms: C5_8  and  C8_11
REMARK    3  A    between atoms: N1_13  and  N2_14
REMARK                            x       y       z     vdW  Elec       q    Type
REMARK                         _______ _______ _______ _____ _____    ______ ____
ROOT
ATOM      1  C8  UNL     1     162.109 142.267 166.514  0.00  0.00    +0.000 C 
ATOM      2  O1  UNL     1     163.293 141.869 166.340  0.00  0.00    +0.000 OA
ATOM      3  N1  UNL     1     161.213 141.907 165.449  0.00  0.00    +0.000 N 
ATOM      4  H5  UNL     1     160.220 142.166 165.534  0.00  0.00    +0.000 HD
ENDROOT
BRANCH   3   5
ATOM      5  N2  UNL     1     161.711 141.206 164.322  0.00  0.00    +0.000 N 
ATOM      6  C9  UNL     1     162.178 141.865 163.122  0.00  0.00    +0.000 C 
ATOM      7  O2  UNL     1     161.751 142.959 162.706  0.00  0.00    +0.000 OA
ATOM      8  C10 UNL     1     163.192 141.016 162.550  0.00  0.00    +0.000 C 
ATOM      9  C11 UNL     1     163.125 140.849 161.059  0.00  0.00    +0.000 C 
ATOM     10  C12 UNL     1     161.952 139.999 160.641  0.00  0.00    +0.000 C 
ATOM     11  C13 UNL     1     161.907 138.815 161.243  0.00  0.00    +0.000 C 
ATOM     12  C14 UNL     1     163.015 138.575 162.208  0.00  0.00    +0.000 C 
ATOM     13  C15 UNL     1     164.296 138.644 161.377  0.00  0.00    +0.000 C 
ATOM     14  C16 UNL     1     164.249 138.783 159.920  0.00  0.00    +0.000 C 
ATOM     15  C17 UNL     1     164.355 140.036 160.685  0.00  0.00    +0.000 C 
ATOM     16  C18 UNL     1     163.089 139.666 163.215  0.00  0.00    +0.000 C 
ATOM     17  C19 UNL     1     161.884 139.823 164.080  0.00  0.00    +0.000 C 
ATOM     18  O3  UNL     1     161.118 138.914 164.550  0.00  0.00    +0.000 OA
ENDBRANCH   3   5
BRANCH   1  22
ATOM     19  C2  UNL     1     160.754 144.648 169.743  0.00  0.00    +0.000 A 
ATOM     20  C3  UNL     1     160.827 145.127 168.451  0.00  0.00    +0.000 A 
ATOM     21  C4  UNL     1     161.287 144.330 167.455  0.00  0.00    +0.000 A 
ATOM     22  C5  UNL     1     161.704 143.020 167.660  0.00  0.00    +0.000 A 
ATOM     23  C6  UNL     1     161.637 142.538 168.934  0.00  0.00    +0.000 A 
ATOM     24  C7  UNL     1     161.166 143.344 169.973  0.00  0.00    +0.000 A 
BRANCH  19  26
ATOM     25  F1  UNL     1     160.778 145.171 172.026  0.00  0.00    +0.000 F 
ATOM     26  C1  UNL     1     160.213 145.531 170.792  0.00  0.00    +0.000 C 
ATOM     27  F2  UNL     1     160.622 146.838 170.591  0.00  0.00    +0.000 F 
ATOM     28  F3  UNL     1     158.855 145.437 170.935  0.00  0.00    +0.000 F 
ENDBRANCH  19  26
ENDBRANCH   1  22
TORSDOF 3
ENDMDL
MODEL 4
REMARK VINA RESULT:      -6.7     19.336     21.767
REMARK  Name = ./3D_structures\o47_MMV1782114_3D.pdb
REMARK  3 active torsions:
REMARK  status: ('A' for Active; 'I' for Inactive)
REMARK    1  A    between atoms: C1_2  and  C2_5
REMARK    2  A    between atoms: C5_8  and  C8_11
REMARK    3  A    between atoms: N1_13  and  N2_14
REMARK                            x       y       z     vdW  Elec       q    Type
REMARK                         _______ _______ _______ _____ _____    ______ ____
ROOT
ATOM      1  C8  UNL     1     162.071 141.710 166.868  0.00  0.00    +0.000 C 
ATOM      2  O1  UNL     1     162.419 141.224 167.979  0.00  0.00    +0.000 OA
ATOM      3  N1  UNL     1     161.774 143.116 166.916  0.00  0.00    +0.000 N 
ATOM      4  H5  UNL     1     161.516 143.594 166.042  0.00  0.00    +0.000 HD
ENDROOT
BRANCH   3   5
ATOM      5  N2  UNL     1     161.847 143.804 168.154  0.00  0.00    +0.000 N 
ATOM      6  C9  UNL     1     160.749 143.862 169.094  0.00  0.00    +0.000 C 
ATOM      7  O2  UNL     1     159.546 143.817 168.778  0.00  0.00    +0.000 OA
ATOM      8  C10 UNL     1     161.334 143.976 170.407  0.00  0.00    +0.000 C 
ATOM      9  C11 UNL     1     160.670 144.963 171.323  0.00  0.00    +0.000 C 
ATOM     10  C12 UNL     1     160.938 146.387 170.905  0.00  0.00    +0.000 C 
ATOM     11  C13 UNL     1     162.230 146.672 170.774  0.00  0.00    +0.000 C 
ATOM     12  C14 UNL     1     163.142 145.530 171.058  0.00  0.00    +0.000 C 
ATOM     13  C15 UNL     1     162.877 145.156 172.516  0.00  0.00    +0.000 C 
ATOM     14  C16 UNL     1     161.981 145.954 173.354  0.00  0.00    +0.000 C 
ATOM     15  C17 UNL     1     161.368 144.807 172.665  0.00  0.00    +0.000 C 
ATOM     16  C18 UNL     1     162.786 144.347 170.232  0.00  0.00    +0.000 C 
ATOM     17  C19 UNL     1     162.896 144.538 168.757  0.00  0.00    +0.000 C 
ATOM     18  O3  UNL     1     163.758 145.220 168.105  0.00  0.00    +0.000 OA
ENDBRANCH   3   5
BRANCH   1  22
ATOM     19  C2  UNL     1     162.045 139.415 163.309  0.00  0.00    +0.000 A 
ATOM     20  C3  UNL     1     162.999 140.381 163.559  0.00  0.00    +0.000 A 
ATOM     21  C4  UNL     1     162.951 141.103 164.706  0.00  0.00    +0.000 A 
ATOM     22  C5  UNL     1     161.971 140.927 165.676  0.00  0.00    +0.000 A 
ATOM     23  C6  UNL     1     161.023 139.976 165.436  0.00  0.00    +0.000 A 
ATOM     24  C7  UNL     1     161.055 139.223 164.260  0.00  0.00    +0.000 A 
BRANCH  19  26
ATOM     25  F1  UNL     1     161.535 137.380 162.269  0.00  0.00    +0.000 F 
ATOM     26  C1  UNL     1     162.152 138.625 162.069  0.00  0.00    +0.000 C 
ATOM     27  F2  UNL     1     161.424 139.213 161.050  0.00  0.00    +0.000 F 
ATOM     28  F3  UNL     1     163.444 138.372 161.695  0.00  0.00    +0.000 F 
ENDBRANCH  19  26
ENDBRANCH   1  22
TORSDOF 3
ENDMDL
MODEL 5
REMARK VINA RESULT:      -6.6      6.028      7.389
REMARK  Name = ./3D_structures\o47_MMV1782114_3D.pdb
REMARK  3 active torsions:
REMARK  status: ('A' for Active; 'I' for Inactive)
REMARK    1  A    between atoms: C1_2  and  C2_5
REMARK    2  A    between atoms: C5_8  and  C8_11
REMARK    3  A    between atoms: N1_13  and  N2_14
REMARK                            x       y       z     vdW  Elec       q    Type
REMARK                         _______ _______ _______ _____ _____    ______ ____
ROOT
ATOM      1  C8  UNL     1     157.169 158.101 167.723  0.00  0.00    +0.000 C 
ATOM      2  O1  UNL     1     157.115 159.356 167.604  0.00  0.00    +0.000 OA
ATOM      3  N1  UNL     1     156.728 157.620 169.003  0.00  0.00    +0.000 N 
ATOM      4  H5  UNL     1     156.710 156.604 169.166  0.00  0.00    +0.000 HD
ENDROOT
BRANCH   3   5
ATOM      5  N2  UNL     1     156.329 158.546 170.000  0.00  0.00    +0.000 N 
ATOM      6  C9  UNL     1     157.206 158.999 171.058  0.00  0.00    +0.000 C 
ATOM      7  O2  UNL     1     158.132 158.323 171.545  0.00  0.00    +0.000 OA
ATOM      8  C10 UNL     1     156.788 160.335 171.399  0.00  0.00    +0.000 C 
ATOM      9  C11 UNL     1     156.737 160.637 172.870  0.00  0.00    +0.000 C 
ATOM     10  C12 UNL     1     155.590 159.933 173.549  0.00  0.00    +0.000 C 
ATOM     11  C13 UNL     1     154.409 160.168 172.986  0.00  0.00    +0.000 C 
ATOM     12  C14 UNL     1     154.462 161.067 171.802  0.00  0.00    +0.000 C 
ATOM     13  C15 UNL     1     155.017 162.392 172.326  0.00  0.00    +0.000 C 
ATOM     14  C16 UNL     1     155.259 162.601 173.754  0.00  0.00    +0.000 C 
ATOM     15  C17 UNL     1     156.407 162.118 172.970  0.00  0.00    +0.000 C 
ATOM     16  C18 UNL     1     155.426 160.559 170.791  0.00  0.00    +0.000 C 
ATOM     17  C19 UNL     1     155.104 159.222 170.214  0.00  0.00    +0.000 C 
ATOM     18  O3  UNL     1     153.958 158.729 169.938  0.00  0.00    +0.000 OA
ENDBRANCH   3   5
BRANCH   1  22
ATOM     19  C2  UNL     1     158.312 155.574 164.523  0.00  0.00    +0.000 A 
ATOM     20  C3  UNL     1     157.009 155.659 164.969  0.00  0.00    +0.000 A 
ATOM     21  C4  UNL     1     156.698 156.468 166.011  0.00  0.00    +0.000 A 
ATOM     22  C5  UNL     1     157.639 157.243 166.680  0.00  0.00    +0.000 A 
ATOM     23  C6  UNL     1     158.930 157.164 166.247  0.00  0.00    +0.000 A 
ATOM     24  C7  UNL     1     159.269 156.336 165.175  0.00  0.00    +0.000 A 
BRANCH  19  26
ATOM     25  F1  UNL     1     159.248 153.548 163.813  0.00  0.00    +0.000 F 
ATOM     26  C1  UNL     1     158.605 154.712 163.363  0.00  0.00    +0.000 C 
ATOM     27  F2  UNL     1     157.434 154.258 162.783  0.00  0.00    +0.000 F 
ATOM     28  F3  UNL     1     159.436 155.297 162.447  0.00  0.00    +0.000 F 
ENDBRANCH  19  26
ENDBRANCH   1  22
TORSDOF 3
ENDMDL
MODEL 6
REMARK VINA RESULT:      -6.6      8.661     10.692
REMARK  Name = ./3D_structures\o47_MMV1782114_3D.pdb
REMARK  3 active torsions:
REMARK  status: ('A' for Active; 'I' for Inactive)
REMARK    1  A    between atoms: C1_2  and  C2_5
REMARK    2  A    between atoms: C5_8  and  C8_11
REMARK    3  A    between atoms: N1_13  and  N2_14
REMARK                            x       y       z     vdW  Elec       q    Type
REMARK                         _______ _______ _______ _____ _____    ______ ____
ROOT
ATOM      1  C8  UNL     1     157.768 153.629 164.101  0.00  0.00    +0.000 C 
ATOM      2  O1  UNL     1     158.735 153.578 164.911  0.00  0.00    +0.000 OA
ATOM      3  N1  UNL     1     157.156 154.926 164.008  0.00  0.00    +0.000 N 
ATOM      4  H5  UNL     1     156.382 155.057 163.343  0.00  0.00    +0.000 HD
ENDROOT
BRANCH   3   5
ATOM      5  N2  UNL     1     157.631 155.984 164.824  0.00  0.00    +0.000 N 
ATOM      6  C9  UNL     1     156.902 156.492 165.966  0.00  0.00    +0.000 C 
ATOM      7  O2  UNL     1     155.661 156.485 166.072  0.00  0.00    +0.000 OA
ATOM      8  C10 UNL     1     157.884 156.979 166.902  0.00  0.00    +0.000 C 
ATOM      9  C11 UNL     1     157.557 158.294 167.551  0.00  0.00    +0.000 C 
ATOM     10  C12 UNL     1     157.674 159.443 166.583  0.00  0.00    +0.000 C 
ATOM     11  C13 UNL     1     158.852 159.510 165.970  0.00  0.00    +0.000 C 
ATOM     12  C14 UNL     1     159.806 158.435 166.357  0.00  0.00    +0.000 C 
ATOM     13  C15 UNL     1     160.033 158.620 167.857  0.00  0.00    +0.000 C 
ATOM     14  C16 UNL     1     159.461 159.758 168.578  0.00  0.00    +0.000 C 
ATOM     15  C17 UNL     1     158.656 158.526 168.576  0.00  0.00    +0.000 C 
ATOM     16  C18 UNL     1     159.198 157.091 166.170  0.00  0.00    +0.000 C 
ATOM     17  C19 UNL     1     158.819 156.750 164.769  0.00  0.00    +0.000 C 
ATOM     18  O3  UNL     1     159.420 157.057 163.683  0.00  0.00    +0.000 OA
ENDBRANCH   3   5
BRANCH   1  22
ATOM     19  C2  UNL     1     156.268 150.210 162.103  0.00  0.00    +0.000 A 
ATOM     20  C3  UNL     1     156.279 150.317 163.479  0.00  0.00    +0.000 A 
ATOM     21  C4  UNL     1     156.789 151.425 164.071  0.00  0.00    +0.000 A 
ATOM     22  C5  UNL     1     157.320 152.493 163.357  0.00  0.00    +0.000 A 
ATOM     23  C6  UNL     1     157.314 152.396 161.996  0.00  0.00    +0.000 A 
ATOM     24  C7  UNL     1     156.793 151.262 161.369  0.00  0.00    +0.000 A 
BRANCH  19  26
ATOM     25  F1  UNL     1     156.366 148.701 160.314  0.00  0.00    +0.000 F 
ATOM     26  C1  UNL     1     155.670 149.007 161.495  0.00  0.00    +0.000 C 
ATOM     27  F2  UNL     1     155.862 147.902 162.306  0.00  0.00    +0.000 F 
ATOM     28  F3  UNL     1     154.356 149.167 161.152  0.00  0.00    +0.000 F 
ENDBRANCH  19  26
ENDBRANCH   1  22
TORSDOF 3
ENDMDL
MODEL 7
REMARK VINA RESULT:      -6.5     19.781     21.980
REMARK  Name = ./3D_structures\o47_MMV1782114_3D.pdb
REMARK  3 active torsions:
REMARK  status: ('A' for Active; 'I' for Inactive)
REMARK    1  A    between atoms: C1_2  and  C2_5
REMARK    2  A    between atoms: C5_8  and  C8_11
REMARK    3  A    between atoms: N1_13  and  N2_14
REMARK                            x       y       z     vdW  Elec       q    Type
REMARK                         _______ _______ _______ _____ _____    ______ ____
ROOT
ATOM      1  C8  UNL     1     161.952 141.704 167.426  0.00  0.00    +0.000 C 
ATOM      2  O1  UNL     1     161.250 141.271 168.380  0.00  0.00    +0.000 OA
ATOM      3  N1  UNL     1     162.630 142.938 167.717  0.00  0.00    +0.000 N 
ATOM      4  H5  UNL     1     163.251 143.338 167.000  0.00  0.00    +0.000 HD
ENDROOT
BRANCH   3   5
ATOM      5  N2  UNL     1     162.434 143.565 168.973  0.00  0.00    +0.000 N 
ATOM      6  C9  UNL     1     163.230 143.261 170.143  0.00  0.00    +0.000 C 
ATOM      7  O2  UNL     1     163.759 142.157 170.370  0.00  0.00    +0.000 OA
ATOM      8  C10 UNL     1     163.271 144.462 170.940  0.00  0.00    +0.000 C 
ATOM      9  C11 UNL     1     163.093 144.259 172.417  0.00  0.00    +0.000 C 
ATOM     10  C12 UNL     1     161.675 143.884 172.766  0.00  0.00    +0.000 C 
ATOM     11  C13 UNL     1     160.766 144.736 172.302  0.00  0.00    +0.000 C 
ATOM     12  C14 UNL     1     161.331 145.875 171.530  0.00  0.00    +0.000 C 
ATOM     13  C15 UNL     1     162.231 146.622 172.513  0.00  0.00    +0.000 C 
ATOM     14  C16 UNL     1     162.296 146.239 173.925  0.00  0.00    +0.000 C 
ATOM     15  C17 UNL     1     163.305 145.629 173.044  0.00  0.00    +0.000 C 
ATOM     16  C18 UNL     1     162.199 145.390 170.424  0.00  0.00    +0.000 C 
ATOM     17  C19 UNL     1     161.517 144.557 169.393  0.00  0.00    +0.000 C 
ATOM     18  O3  UNL     1     160.332 144.676 168.930  0.00  0.00    +0.000 OA
ENDBRANCH   3   5
BRANCH   1  22
ATOM     19  C2  UNL     1     161.973 139.661 163.716  0.00  0.00    +0.000 A 
ATOM     20  C3  UNL     1     161.070 139.367 164.718  0.00  0.00    +0.000 A 
ATOM     21  C4  UNL     1     161.118 140.037 165.896  0.00  0.00    +0.000 A 
ATOM     22  C5  UNL     1     162.050 141.033 166.167  0.00  0.00    +0.000 A 
ATOM     23  C6  UNL     1     162.947 141.329 165.184  0.00  0.00    +0.000 A 
ATOM     24  C7  UNL     1     162.913 140.649 163.964  0.00  0.00    +0.000 A 
BRANCH  19  26
ATOM     25  F1  UNL     1     163.151 138.564 162.016  0.00  0.00    +0.000 F 
ATOM     26  C1  UNL     1     161.865 138.938 162.436  0.00  0.00    +0.000 C 
ATOM     27  F2  UNL     1     161.193 137.740 162.606  0.00  0.00    +0.000 F 
ATOM     28  F3  UNL     1     161.322 139.690 161.431  0.00  0.00    +0.000 F 
ENDBRANCH  19  26
ENDBRANCH   1  22
TORSDOF 3
ENDMDL
MODEL 8
REMARK VINA RESULT:      -6.3      6.333      8.616
REMARK  Name = ./3D_structures\o47_MMV1782114_3D.pdb
REMARK  3 active torsions:
REMARK  status: ('A' for Active; 'I' for Inactive)
REMARK    1  A    between atoms: C1_2  and  C2_5
REMARK    2  A    between atoms: C5_8  and  C8_11
REMARK    3  A    between atoms: N1_13  and  N2_14
REMARK                            x       y       z     vdW  Elec       q    Type
REMARK                         _______ _______ _______ _____ _____    ______ ____
ROOT
ATOM      1  C8  UNL     1     159.963 158.656 167.632  0.00  0.00    +0.000 C 
ATOM      2  O1  UNL     1     159.237 159.047 166.677  0.00  0.00    +0.000 OA
ATOM      3  N1  UNL     1     159.229 158.326 168.823  0.00  0.00    +0.000 N 
ATOM      4  H5  UNL     1     159.747 157.966 169.635  0.00  0.00    +0.000 HD
ENDROOT
BRANCH   3   5
ATOM      5  N2  UNL     1     157.822 158.500 168.848  0.00  0.00    +0.000 N 
ATOM      6  C9  UNL     1     156.888 157.450 168.503  0.00  0.00    +0.000 C 
ATOM      7  O2  UNL     1     157.123 156.533 167.693  0.00  0.00    +0.000 OA
ATOM      8  C10 UNL     1     155.691 157.692 169.269  0.00  0.00    +0.000 C 
ATOM      9  C11 UNL     1     154.401 157.515 168.519  0.00  0.00    +0.000 C 
ATOM     10  C12 UNL     1     154.177 158.620 167.518  0.00  0.00    +0.000 C 
ATOM     11  C13 UNL     1     154.245 159.840 168.043  0.00  0.00    +0.000 C 
ATOM     12  C14 UNL     1     154.535 159.864 169.502  0.00  0.00    +0.000 C 
ATOM     13  C15 UNL     1     153.370 159.122 170.158  0.00  0.00    +0.000 C 
ATOM     14  C16 UNL     1     152.220 158.671 169.373  0.00  0.00    +0.000 C 
ATOM     15  C17 UNL     1     153.302 157.690 169.554  0.00  0.00    +0.000 C 
ATOM     16  C18 UNL     1     155.771 159.096 169.812  0.00  0.00    +0.000 C 
ATOM     17  C19 UNL     1     157.021 159.616 169.187  0.00  0.00    +0.000 C 
ATOM     18  O3  UNL     1     157.362 160.830 168.977  0.00  0.00    +0.000 OA
ENDBRANCH   3   5
BRANCH   1  22
ATOM     19  C2  UNL     1     164.194 158.626 167.470  0.00  0.00    +0.000 A 
ATOM     20  C3  UNL     1     163.462 159.797 167.474  0.00  0.00    +0.000 A 
ATOM     21  C4  UNL     1     162.108 159.751 167.507  0.00  0.00    +0.000 A 
ATOM     22  C5  UNL     1     161.387 158.563 167.536  0.00  0.00    +0.000 A 
ATOM     23  C6  UNL     1     162.102 157.402 167.530  0.00  0.00    +0.000 A 
ATOM     24  C7  UNL     1     163.498 157.428 167.497  0.00  0.00    +0.000 A 
BRANCH  19  26
ATOM     25  F1  UNL     1     166.179 157.796 166.545  0.00  0.00    +0.000 F 
ATOM     26  C1  UNL     1     165.666 158.716 167.473  0.00  0.00    +0.000 C 
ATOM     27  F2  UNL     1     166.082 159.950 167.003  0.00  0.00    +0.000 F 
ATOM     28  F3  UNL     1     166.227 158.414 168.684  0.00  0.00    +0.000 F 
ENDBRANCH  19  26
ENDBRANCH   1  22
TORSDOF 3
ENDMDL
MODEL 9
REMARK VINA RESULT:      -6.3      7.342      9.061
REMARK  Name = ./3D_structures\o47_MMV1782114_3D.pdb
REMARK  3 active torsions:
REMARK  status: ('A' for Active; 'I' for Inactive)
REMARK    1  A    between atoms: C1_2  and  C2_5
REMARK    2  A    between atoms: C5_8  and  C8_11
REMARK    3  A    between atoms: N1_13  and  N2_14
REMARK                            x       y       z     vdW  Elec       q    Type
REMARK                         _______ _______ _______ _____ _____    ______ ____
ROOT
ATOM      1  C8  UNL     1     157.973 157.178 164.471  0.00  0.00    +0.000 C 
ATOM      2  O1  UNL     1     157.441 158.318 164.560  0.00  0.00    +0.000 OA
ATOM      3  N1  UNL     1     158.201 156.543 165.741  0.00  0.00    +0.000 N 
ATOM      4  H5  UNL     1     158.601 155.595 165.752  0.00  0.00    +0.000 HD
ENDROOT
BRANCH   3   5
ATOM      5  N2  UNL     1     157.868 157.230 166.936  0.00  0.00    +0.000 N 
ATOM      6  C9  UNL     1     156.582 157.108 167.588  0.00  0.00    +0.000 C 
ATOM      7  O2  UNL     1     155.511 156.873 166.998  0.00  0.00    +0.000 OA
ATOM      8  C10 UNL     1     156.811 157.309 168.997  0.00  0.00    +0.000 C 
ATOM      9  C11 UNL     1     155.801 158.175 169.695  0.00  0.00    +0.000 C 
ATOM     10  C12 UNL     1     155.937 159.624 169.303  0.00  0.00    +0.000 C 
ATOM     11  C13 UNL     1     157.162 160.112 169.472  0.00  0.00    +0.000 C 
ATOM     12  C14 UNL     1     158.146 159.130 170.002  0.00  0.00    +0.000 C 
ATOM     13  C15 UNL     1     157.602 158.713 171.369  0.00  0.00    +0.000 C 
ATOM     14  C16 UNL     1     156.418 159.355 171.943  0.00  0.00    +0.000 C 
ATOM     15  C17 UNL     1     156.175 158.127 171.169  0.00  0.00    +0.000 C 
ATOM     16  C18 UNL     1     158.186 157.908 169.157  0.00  0.00    +0.000 C 
ATOM     17  C19 UNL     1     158.614 158.120 167.745  0.00  0.00    +0.000 C 
ATOM     18  O3  UNL     1     159.490 158.933 167.291  0.00  0.00    +0.000 OA
ENDBRANCH   3   5
BRANCH   1  22
ATOM     19  C2  UNL     1     159.280 155.496 160.811  0.00  0.00    +0.000 A 
ATOM     20  C3  UNL     1     159.901 156.585 161.389  0.00  0.00    +0.000 A 
ATOM     21  C4  UNL     1     159.431 157.098 162.552  0.00  0.00    +0.000 A 
ATOM     22  C5  UNL     1     158.327 156.582 163.221  0.00  0.00    +0.000 A 
ATOM     23  C6  UNL     1     157.706 155.507 162.657  0.00  0.00    +0.000 A 
ATOM     24  C7  UNL     1     158.176 154.964 161.459  0.00  0.00    +0.000 A 
BRANCH  19  26
ATOM     25  F1  UNL     1     161.232 154.804 159.717  0.00  0.00    +0.000 F 
ATOM     26  C1  UNL     1     159.843 154.943 159.566  0.00  0.00    +0.000 C 
ATOM     27  F2  UNL     1     159.387 153.653 159.354  0.00  0.00    +0.000 F 
ATOM     28  F3  UNL     1     159.640 155.743 158.475  0.00  0.00    +0.000 F 
ENDBRANCH  19  26
ENDBRANCH   1  22
TORSDOF 3
ENDMDL
