MODEL 1
REMARK VINA RESULT:      -6.2      0.000      0.000
REMARK  Name = ./3D_structures\o48_MMV018362_3D.pdb
REMARK  3 active torsions:
REMARK  status: ('A' for Active; 'I' for Inactive)
REMARK    1  A    between atoms: C1_2  and  O2_3
REMARK    2  A    between atoms: C1_2  and  C2_4
REMARK    3  A    between atoms: C4_6  and  C11_14
REMARK                            x       y       z     vdW  Elec       q    Type
REMARK                         _______ _______ _______ _____ _____    ______ ____
ROOT
ATOM      1  C2  UNL     1     155.573 157.714 167.503  0.00  0.00    +0.000 A 
ATOM      2  C3  UNL     1     154.236 157.789 167.946  0.00  0.00    +0.000 A 
ATOM      3  C4  UNL     1     153.856 158.103 169.215  0.00  0.00    +0.000 A 
ATOM      4  N1  UNL     1     154.813 158.360 170.118  0.00  0.00    +0.000 NA
ATOM      5  C5  UNL     1     156.120 158.303 169.747  0.00  0.00    +0.000 A 
ATOM      6  C6  UNL     1     157.075 158.571 170.701  0.00  0.00    +0.000 A 
ATOM      7  C7  UNL     1     158.417 158.530 170.401  0.00  0.00    +0.000 A 
ATOM      8  C8  UNL     1     158.810 158.215 169.125  0.00  0.00    +0.000 A 
ATOM      9  C9  UNL     1     157.869 157.936 168.129  0.00  0.00    +0.000 A 
ATOM     10  C10 UNL     1     156.533 157.987 168.467  0.00  0.00    +0.000 A 
ENDROOT
BRANCH   3  11
ATOM     11  C11 UNL     1     152.444 158.158 169.587  0.00  0.00    +0.000 A 
ATOM     12  C12 UNL     1     151.771 159.351 169.335  0.00  0.00    +0.000 A 
ATOM     13  C13 UNL     1     150.452 159.444 169.667  0.00  0.00    +0.000 A 
ATOM     14  C14 UNL     1     149.751 158.415 170.241  0.00  0.00    +0.000 A 
ATOM     15  C15 UNL     1     150.406 157.230 170.495  0.00  0.00    +0.000 A 
ATOM     16  C16 UNL     1     151.759 157.115 170.162  0.00  0.00    +0.000 A 
ENDBRANCH   3  11
BRANCH   1  18
ATOM     17  O1  UNL     1     156.082 158.348 165.325  0.00  0.00    +0.000 OA
ATOM     18  C1  UNL     1     155.860 157.381 166.131  0.00  0.00    +0.000 C 
BRANCH  18  19
ATOM     19  O2  UNL     1     155.925 156.146 165.582  0.00  0.00    +0.000 OA
ATOM     20  H1  UNL     1     155.400 155.357 165.948  0.00  0.00    +0.000 HD
ENDBRANCH  18  19
ENDBRANCH   1  18
TORSDOF 3
ENDMDL
MODEL 2
REMARK VINA RESULT:      -5.9      2.143      3.072
REMARK  Name = ./3D_structures\o48_MMV018362_3D.pdb
REMARK  3 active torsions:
REMARK  status: ('A' for Active; 'I' for Inactive)
REMARK    1  A    between atoms: C1_2  and  O2_3
REMARK    2  A    between atoms: C1_2  and  C2_4
REMARK    3  A    between atoms: C4_6  and  C11_14
REMARK                            x       y       z     vdW  Elec       q    Type
REMARK                         _______ _______ _______ _____ _____    ______ ____
ROOT
ATOM      1  C2  UNL     1     156.596 158.428 169.320  0.00  0.00    +0.000 A 
ATOM      2  C3  UNL     1     155.232 158.548 169.657  0.00  0.00    +0.000 A 
ATOM      3  C4  UNL     1     154.201 158.118 168.879  0.00  0.00    +0.000 A 
ATOM      4  N1  UNL     1     154.490 157.540 167.705  0.00  0.00    +0.000 NA
ATOM      5  C5  UNL     1     155.789 157.398 167.327  0.00  0.00    +0.000 A 
ATOM      6  C6  UNL     1     156.048 156.802 166.115  0.00  0.00    +0.000 A 
ATOM      7  C7  UNL     1     157.337 156.626 165.665  0.00  0.00    +0.000 A 
ATOM      8  C8  UNL     1     158.383 157.055 166.442  0.00  0.00    +0.000 A 
ATOM      9  C9  UNL     1     158.158 157.666 167.679  0.00  0.00    +0.000 A 
ATOM     10  C10 UNL     1     156.854 157.825 168.098  0.00  0.00    +0.000 A 
ENDROOT
BRANCH   3  11
ATOM     11  C11 UNL     1     152.813 158.283 169.309  0.00  0.00    +0.000 A 
ATOM     12  C12 UNL     1     152.212 159.510 169.044  0.00  0.00    +0.000 A 
ATOM     13  C13 UNL     1     150.919 159.705 169.429  0.00  0.00    +0.000 A 
ATOM     14  C14 UNL     1     150.176 158.746 170.067  0.00  0.00    +0.000 A 
ATOM     15  C15 UNL     1     150.760 157.528 170.335  0.00  0.00    +0.000 A 
ATOM     16  C16 UNL     1     152.086 157.309 169.949  0.00  0.00    +0.000 A 
ENDBRANCH   3  11
BRANCH   1  18
ATOM     17  O1  UNL     1     157.952 160.137 170.123  0.00  0.00    +0.000 OA
ATOM     18  C1  UNL     1     157.607 158.911 170.226  0.00  0.00    +0.000 C 
BRANCH  18  19
ATOM     19  O2  UNL     1     158.247 158.210 171.191  0.00  0.00    +0.000 OA
ATOM     20  H1  UNL     1     159.228 157.958 171.123  0.00  0.00    +0.000 HD
ENDBRANCH  18  19
ENDBRANCH   1  18
TORSDOF 3
ENDMDL
MODEL 3
REMARK VINA RESULT:      -5.9      7.167     10.333
REMARK  Name = ./3D_structures\o48_MMV018362_3D.pdb
REMARK  3 active torsions:
REMARK  status: ('A' for Active; 'I' for Inactive)
REMARK    1  A    between atoms: C1_2  and  O2_3
REMARK    2  A    between atoms: C1_2  and  C2_4
REMARK    3  A    between atoms: C4_6  and  C11_14
REMARK                            x       y       z     vdW  Elec       q    Type
REMARK                         _______ _______ _______ _____ _____    ______ ____
ROOT
ATOM      1  C2  UNL     1     148.015 151.547 167.984  0.00  0.00    +0.000 A 
ATOM      2  C3  UNL     1     148.699 152.239 169.005  0.00  0.00    +0.000 A 
ATOM      3  C4  UNL     1     148.233 152.409 170.272  0.00  0.00    +0.000 A 
ATOM      4  N1  UNL     1     147.037 151.888 170.584  0.00  0.00    +0.000 NA
ATOM      5  C5  UNL     1     146.332 151.211 169.639  0.00  0.00    +0.000 A 
ATOM      6  C6  UNL     1     145.109 150.691 169.994  0.00  0.00    +0.000 A 
ATOM      7  C7  UNL     1     144.337 149.997 169.090  0.00  0.00    +0.000 A 
ATOM      8  C8  UNL     1     144.798 149.819 167.811  0.00  0.00    +0.000 A 
ATOM      9  C9  UNL     1     146.036 150.333 167.413  0.00  0.00    +0.000 A 
ATOM     10  C10 UNL     1     146.782 151.023 168.346  0.00  0.00    +0.000 A 
ENDROOT
BRANCH   3  11
ATOM     11  C11 UNL     1     149.011 153.140 171.270  0.00  0.00    +0.000 A 
ATOM     12  C12 UNL     1     148.711 152.897 172.607  0.00  0.00    +0.000 A 
ATOM     13  C13 UNL     1     149.414 153.559 173.570  0.00  0.00    +0.000 A 
ATOM     14  C14 UNL     1     150.408 154.459 173.284  0.00  0.00    +0.000 A 
ATOM     15  C15 UNL     1     150.714 154.709 171.965  0.00  0.00    +0.000 A 
ATOM     16  C16 UNL     1     150.004 154.040 170.963  0.00  0.00    +0.000 A 
ENDBRANCH   3  11
BRANCH   1  18
ATOM     17  O1  UNL     1     149.506 150.524 166.525  0.00  0.00    +0.000 OA
ATOM     18  C1  UNL     1     148.608 151.420 166.677  0.00  0.00    +0.000 C 
BRANCH  18  19
ATOM     19  O2  UNL     1     148.324 152.147 165.572  0.00  0.00    +0.000 OA
ATOM     20  H1  UNL     1     148.395 151.765 164.633  0.00  0.00    +0.000 HD
ENDBRANCH  18  19
ENDBRANCH   1  18
TORSDOF 3
ENDMDL
MODEL 4
REMARK VINA RESULT:      -5.9     10.804     12.215
REMARK  Name = ./3D_structures\o48_MMV018362_3D.pdb
REMARK  3 active torsions:
REMARK  status: ('A' for Active; 'I' for Inactive)
REMARK    1  A    between atoms: C1_2  and  O2_3
REMARK    2  A    between atoms: C1_2  and  C2_4
REMARK    3  A    between atoms: C4_6  and  C11_14
REMARK                            x       y       z     vdW  Elec       q    Type
REMARK                         _______ _______ _______ _____ _____    ______ ____
ROOT
ATOM      1  C2  UNL     1     145.480 165.166 166.040  0.00  0.00    +0.000 A 
ATOM      2  C3  UNL     1     145.035 164.256 165.058  0.00  0.00    +0.000 A 
ATOM      3  C4  UNL     1     144.805 162.933 165.276  0.00  0.00    +0.000 A 
ATOM      4  N1  UNL     1     145.015 162.446 166.507  0.00  0.00    +0.000 NA
ATOM      5  C5  UNL     1     145.445 163.277 167.494  0.00  0.00    +0.000 A 
ATOM      6  C6  UNL     1     145.652 162.743 168.745  0.00  0.00    +0.000 A 
ATOM      7  C7  UNL     1     146.088 163.521 169.792  0.00  0.00    +0.000 A 
ATOM      8  C8  UNL     1     146.322 164.857 169.584  0.00  0.00    +0.000 A 
ATOM      9  C9  UNL     1     146.124 165.435 168.326  0.00  0.00    +0.000 A 
ATOM     10  C10 UNL     1     145.686 164.624 167.300  0.00  0.00    +0.000 A 
ENDROOT
BRANCH   3  11
ATOM     11  C11 UNL     1     144.343 162.061 164.197  0.00  0.00    +0.000 A 
ATOM     12  C12 UNL     1     144.281 160.698 164.471  0.00  0.00    +0.000 A 
ATOM     13  C13 UNL     1     143.855 159.849 163.492  0.00  0.00    +0.000 A 
ATOM     14  C14 UNL     1     143.482 160.276 162.244  0.00  0.00    +0.000 A 
ATOM     15  C15 UNL     1     143.539 161.622 161.961  0.00  0.00    +0.000 A 
ATOM     16  C16 UNL     1     143.974 162.508 162.951  0.00  0.00    +0.000 A 
ENDBRANCH   3  11
BRANCH   1  18
ATOM     17  O1  UNL     1     144.642 167.283 165.573  0.00  0.00    +0.000 OA
ATOM     18  C1  UNL     1     145.682 166.551 165.700  0.00  0.00    +0.000 C 
BRANCH  18  19
ATOM     19  O2  UNL     1     146.861 167.183 165.496  0.00  0.00    +0.000 OA
ATOM     20  H1  UNL     1     147.543 167.321 166.236  0.00  0.00    +0.000 HD
ENDBRANCH  18  19
ENDBRANCH   1  18
TORSDOF 3
ENDMDL
MODEL 5
REMARK VINA RESULT:      -5.8      4.059      5.084
REMARK  Name = ./3D_structures\o48_MMV018362_3D.pdb
REMARK  3 active torsions:
REMARK  status: ('A' for Active; 'I' for Inactive)
REMARK    1  A    between atoms: C1_2  and  O2_3
REMARK    2  A    between atoms: C1_2  and  C2_4
REMARK    3  A    between atoms: C4_6  and  C11_14
REMARK                            x       y       z     vdW  Elec       q    Type
REMARK                         _______ _______ _______ _____ _____    ______ ____
ROOT
ATOM      1  C2  UNL     1     159.483 158.358 167.885  0.00  0.00    +0.000 A 
ATOM      2  C3  UNL     1     158.933 158.900 169.065  0.00  0.00    +0.000 A 
ATOM      3  C4  UNL     1     157.636 158.762 169.450  0.00  0.00    +0.000 A 
ATOM      4  N1  UNL     1     156.810 158.062 168.659  0.00  0.00    +0.000 NA
ATOM      5  C5  UNL     1     157.285 157.516 167.508  0.00  0.00    +0.000 A 
ATOM      6  C6  UNL     1     156.409 156.806 166.720  0.00  0.00    +0.000 A 
ATOM      7  C7  UNL     1     156.817 156.226 165.540  0.00  0.00    +0.000 A 
ATOM      8  C8  UNL     1     158.123 156.360 165.143  0.00  0.00    +0.000 A 
ATOM      9  C9  UNL     1     159.042 157.074 165.917  0.00  0.00    +0.000 A 
ATOM     10  C10 UNL     1     158.598 157.641 167.093  0.00  0.00    +0.000 A 
ENDROOT
BRANCH   3  11
ATOM     11  C11 UNL     1     157.150 159.359 170.693  0.00  0.00    +0.000 A 
ATOM     12  C12 UNL     1     157.433 160.707 170.897  0.00  0.00    +0.000 A 
ATOM     13  C13 UNL     1     156.998 161.303 172.043  0.00  0.00    +0.000 A 
ATOM     14  C14 UNL     1     156.292 160.637 173.012  0.00  0.00    +0.000 A 
ATOM     15  C15 UNL     1     156.007 159.303 172.821  0.00  0.00    +0.000 A 
ATOM     16  C16 UNL     1     156.445 158.673 171.652  0.00  0.00    +0.000 A 
ENDBRANCH   3  11
BRANCH   1  18
ATOM     17  O1  UNL     1     161.228 159.720 167.176  0.00  0.00    +0.000 OA
ATOM     18  C1  UNL     1     160.877 158.560 167.580  0.00  0.00    +0.000 C 
BRANCH  18  19
ATOM     19  O2  UNL     1     161.877 157.654 167.673  0.00  0.00    +0.000 OA
ATOM     20  H1  UNL     1     162.737 157.839 168.181  0.00  0.00    +0.000 HD
ENDBRANCH  18  19
ENDBRANCH   1  18
TORSDOF 3
ENDMDL
MODEL 6
REMARK VINA RESULT:      -5.7      2.929      7.114
REMARK  Name = ./3D_structures\o48_MMV018362_3D.pdb
REMARK  3 active torsions:
REMARK  status: ('A' for Active; 'I' for Inactive)
REMARK    1  A    between atoms: C1_2  and  O2_3
REMARK    2  A    between atoms: C1_2  and  C2_4
REMARK    3  A    between atoms: C4_6  and  C11_14
REMARK                            x       y       z     vdW  Elec       q    Type
REMARK                         _______ _______ _______ _____ _____    ______ ____
ROOT
ATOM      1  C2  UNL     1     157.504 157.619 167.164  0.00  0.00    +0.000 A 
ATOM      2  C3  UNL     1     158.865 157.884 166.907  0.00  0.00    +0.000 A 
ATOM      3  C4  UNL     1     159.776 158.246 167.851  0.00  0.00    +0.000 A 
ATOM      4  N1  UNL     1     159.362 158.363 169.121  0.00  0.00    +0.000 NA
ATOM      5  C5  UNL     1     158.060 158.120 169.428  0.00  0.00    +0.000 A 
ATOM      6  C6  UNL     1     157.670 158.252 170.741  0.00  0.00    +0.000 A 
ATOM      7  C7  UNL     1     156.369 158.024 171.127  0.00  0.00    +0.000 A 
ATOM      8  C8  UNL     1     155.443 157.659 170.183  0.00  0.00    +0.000 A 
ATOM      9  C9  UNL     1     155.802 157.515 168.839  0.00  0.00    +0.000 A 
ATOM     10  C10 UNL     1     157.115 157.751 168.489  0.00  0.00    +0.000 A 
ENDROOT
BRANCH   3  11
ATOM     11  C11 UNL     1     161.170 158.501 167.494  0.00  0.00    +0.000 A 
ATOM     12  C12 UNL     1     161.507 159.811 167.162  0.00  0.00    +0.000 A 
ATOM     13  C13 UNL     1     162.797 160.092 166.822  0.00  0.00    +0.000 A 
ATOM     14  C14 UNL     1     163.786 159.144 166.792  0.00  0.00    +0.000 A 
ATOM     15  C15 UNL     1     163.466 157.844 167.118  0.00  0.00    +0.000 A 
ATOM     16  C16 UNL     1     162.148 157.536 167.468  0.00  0.00    +0.000 A 
ENDBRANCH   3  11
BRANCH   1  18
ATOM     17  O1  UNL     1     156.088 158.170 165.406  0.00  0.00    +0.000 OA
ATOM     18  C1  UNL     1     156.629 157.234 166.087  0.00  0.00    +0.000 C 
BRANCH  18  19
ATOM     19  O2  UNL     1     156.305 155.978 165.701  0.00  0.00    +0.000 OA
ATOM     20  H1  UNL     1     155.386 155.736 165.342  0.00  0.00    +0.000 HD
ENDBRANCH  18  19
ENDBRANCH   1  18
TORSDOF 3
ENDMDL
MODEL 7
REMARK VINA RESULT:      -5.7      2.561      5.613
REMARK  Name = ./3D_structures\o48_MMV018362_3D.pdb
REMARK  3 active torsions:
REMARK  status: ('A' for Active; 'I' for Inactive)
REMARK    1  A    between atoms: C1_2  and  O2_3
REMARK    2  A    between atoms: C1_2  and  C2_4
REMARK    3  A    between atoms: C4_6  and  C11_14
REMARK                            x       y       z     vdW  Elec       q    Type
REMARK                         _______ _______ _______ _____ _____    ______ ____
ROOT
ATOM      1  C2  UNL     1     155.073 157.825 168.598  0.00  0.00    +0.000 A 
ATOM      2  C3  UNL     1     155.545 157.440 167.326  0.00  0.00    +0.000 A 
ATOM      3  C4  UNL     1     156.858 157.369 166.976  0.00  0.00    +0.000 A 
ATOM      4  N1  UNL     1     157.779 157.686 167.898  0.00  0.00    +0.000 NA
ATOM      5  C5  UNL     1     157.382 158.064 169.142  0.00  0.00    +0.000 A 
ATOM      6  C6  UNL     1     158.354 158.384 170.062  0.00  0.00    +0.000 A 
ATOM      7  C7  UNL     1     158.028 158.777 171.339  0.00  0.00    +0.000 A 
ATOM      8  C8  UNL     1     156.708 158.852 171.703  0.00  0.00    +0.000 A 
ATOM      9  C9  UNL     1     155.692 158.535 170.795  0.00  0.00    +0.000 A 
ATOM     10  C10 UNL     1     156.056 158.145 169.524  0.00  0.00    +0.000 A 
ENDROOT
BRANCH   3  11
ATOM     11  C11 UNL     1     157.258 156.959 165.631  0.00  0.00    +0.000 A 
ATOM     12  C12 UNL     1     157.687 157.963 164.767  0.00  0.00    +0.000 A 
ATOM     13  C13 UNL     1     158.070 157.624 163.503  0.00  0.00    +0.000 A 
ATOM     14  C14 UNL     1     158.052 156.335 163.038  0.00  0.00    +0.000 A 
ATOM     15  C15 UNL     1     157.630 155.333 163.883  0.00  0.00    +0.000 A 
ATOM     16  C16 UNL     1     157.233 155.661 165.183  0.00  0.00    +0.000 A 
ENDBRANCH   3  11
BRANCH   1  18
ATOM     17  O1  UNL     1     153.009 158.885 168.470  0.00  0.00    +0.000 OA
ATOM     18  C1  UNL     1     153.657 157.856 168.862  0.00  0.00    +0.000 C 
BRANCH  18  19
ATOM     19  O2  UNL     1     152.917 156.911 169.485  0.00  0.00    +0.000 OA
ATOM     20  H1  UNL     1     151.976 157.089 169.825  0.00  0.00    +0.000 HD
ENDBRANCH  18  19
ENDBRANCH   1  18
TORSDOF 3
ENDMDL
MODEL 8
REMARK VINA RESULT:      -5.6      3.276      5.524
REMARK  Name = ./3D_structures\o48_MMV018362_3D.pdb
REMARK  3 active torsions:
REMARK  status: ('A' for Active; 'I' for Inactive)
REMARK    1  A    between atoms: C1_2  and  O2_3
REMARK    2  A    between atoms: C1_2  and  C2_4
REMARK    3  A    between atoms: C4_6  and  C11_14
REMARK                            x       y       z     vdW  Elec       q    Type
REMARK                         _______ _______ _______ _____ _____    ______ ____
ROOT
ATOM      1  C2  UNL     1     152.982 159.742 170.525  0.00  0.00    +0.000 A 
ATOM      2  C3  UNL     1     153.590 159.109 169.420  0.00  0.00    +0.000 A 
ATOM      3  C4  UNL     1     154.869 158.647 169.399  0.00  0.00    +0.000 A 
ATOM      4  N1  UNL     1     155.618 158.799 170.501  0.00  0.00    +0.000 NA
ATOM      5  C5  UNL     1     155.085 159.402 171.597  0.00  0.00    +0.000 A 
ATOM      6  C6  UNL     1     155.882 159.543 172.710  0.00  0.00    +0.000 A 
ATOM      7  C7  UNL     1     155.412 160.145 173.855  0.00  0.00    +0.000 A 
ATOM      8  C8  UNL     1     154.124 160.614 173.887  0.00  0.00    +0.000 A 
ATOM      9  C9  UNL     1     153.284 160.489 172.775  0.00  0.00    +0.000 A 
ATOM     10  C10 UNL     1     153.789 159.880 171.646  0.00  0.00    +0.000 A 
ENDROOT
BRANCH   3  11
ATOM     11  C11 UNL     1     155.418 158.001 168.208  0.00  0.00    +0.000 A 
ATOM     12  C12 UNL     1     156.602 157.287 168.366  0.00  0.00    +0.000 A 
ATOM     13  C13 UNL     1     157.148 156.670 167.280  0.00  0.00    +0.000 A 
ATOM     14  C14 UNL     1     156.584 156.718 166.031  0.00  0.00    +0.000 A 
ATOM     15  C15 UNL     1     155.413 157.422 165.862  0.00  0.00    +0.000 A 
ATOM     16  C16 UNL     1     154.838 158.063 166.964  0.00  0.00    +0.000 A 
ENDBRANCH   3  11
BRANCH   1  18
ATOM     17  O1  UNL     1     151.399 161.329 169.912  0.00  0.00    +0.000 OA
ATOM     18  C1  UNL     1     151.615 160.185 170.439  0.00  0.00    +0.000 C 
BRANCH  18  19
ATOM     19  O2  UNL     1     150.510 159.524 170.856  0.00  0.00    +0.000 OA
ATOM     20  H1  UNL     1     149.775 159.231 170.218  0.00  0.00    +0.000 HD
ENDBRANCH  18  19
ENDBRANCH   1  18
TORSDOF 3
ENDMDL
MODEL 9
REMARK VINA RESULT:      -5.6      3.554      4.345
REMARK  Name = ./3D_structures\o48_MMV018362_3D.pdb
REMARK  3 active torsions:
REMARK  status: ('A' for Active; 'I' for Inactive)
REMARK    1  A    between atoms: C1_2  and  O2_3
REMARK    2  A    between atoms: C1_2  and  C2_4
REMARK    3  A    between atoms: C4_6  and  C11_14
REMARK                            x       y       z     vdW  Elec       q    Type
REMARK                         _______ _______ _______ _____ _____    ______ ____
ROOT
ATOM      1  C2  UNL     1     157.092 157.905 167.203  0.00  0.00    +0.000 A 
ATOM      2  C3  UNL     1     156.706 158.422 168.458  0.00  0.00    +0.000 A 
ATOM      3  C4  UNL     1     157.569 158.838 169.424  0.00  0.00    +0.000 A 
ATOM      4  N1  UNL     1     158.885 158.754 169.178  0.00  0.00    +0.000 NA
ATOM      5  C5  UNL     1     159.316 158.264 167.985  0.00  0.00    +0.000 A 
ATOM      6  C6  UNL     1     160.672 158.191 167.768  0.00  0.00    +0.000 A 
ATOM      7  C7  UNL     1     161.183 157.704 166.587  0.00  0.00    +0.000 A 
ATOM      8  C8  UNL     1     160.321 157.282 165.607  0.00  0.00    +0.000 A 
ATOM      9  C9  UNL     1     158.936 157.341 165.791  0.00  0.00    +0.000 A 
ATOM     10  C10 UNL     1     158.461 157.835 166.987  0.00  0.00    +0.000 A 
ENDROOT
BRANCH   3  11
ATOM     11  C11 UNL     1     157.080 159.361 170.697  0.00  0.00    +0.000 A 
ATOM     12  C12 UNL     1     157.318 160.708 170.960  0.00  0.00    +0.000 A 
ATOM     13  C13 UNL     1     156.878 161.236 172.137  0.00  0.00    +0.000 A 
ATOM     14  C14 UNL     1     156.207 160.503 173.081  0.00  0.00    +0.000 A 
ATOM     15  C15 UNL     1     155.966 159.170 172.834  0.00  0.00    +0.000 A 
ATOM     16  C16 UNL     1     156.410 158.609 171.632  0.00  0.00    +0.000 A 
ENDBRANCH   3  11
BRANCH   1  18
ATOM     17  O1  UNL     1     155.369 158.421 165.732  0.00  0.00    +0.000 OA
ATOM     18  C1  UNL     1     156.090 157.502 166.250  0.00  0.00    +0.000 C 
BRANCH  18  19
ATOM     19  O2  UNL     1     155.815 156.247 165.829  0.00  0.00    +0.000 OA
ATOM     20  H1  UNL     1     155.810 155.988 164.846  0.00  0.00    +0.000 HD
ENDBRANCH  18  19
ENDBRANCH   1  18
TORSDOF 3
ENDMDL
