MODEL 1
REMARK VINA RESULT:      -5.7      0.000      0.000
REMARK  Name = ./3D_structures\o49_MMV1634556_3D.pdb
REMARK  11 active torsions:
REMARK  status: ('A' for Active; 'I' for Inactive)
REMARK    1  A    between atoms: C1_2  and  C2_5
REMARK    2  A    between atoms: C3_7  and  C4_10
REMARK    3  A    between atoms: C6_12  and  C19_28
REMARK    4  A    between atoms: C7_13  and  O2_14
REMARK    5  A    between atoms: O2_14  and  C8_15
REMARK    6  A    between atoms: C8_15  and  C9_16
REMARK    7  A    between atoms: C9_16  and  C10_17
REMARK    8  A    between atoms: C10_17  and  C11_18
REMARK    9  A    between atoms: C13_20  and  C14_23
REMARK   10  A    between atoms: C14_23  and  C15_24
REMARK   11  A    between atoms: C16_25  and  C18_27
REMARK                            x       y       z     vdW  Elec       q    Type
REMARK                         _______ _______ _______ _____ _____    ______ ____
ROOT
ATOM      1  C4  UNL     1     155.359 158.301 167.681  0.00  0.00    +0.000 A 
ATOM      2  C5  UNL     1     154.323 157.872 168.470  0.00  0.00    +0.000 A 
ATOM      3  C6  UNL     1     153.679 158.720 169.401  0.00  0.00    +0.000 A 
ATOM      4  C7  UNL     1     154.064 159.999 169.552  0.00  0.00    +0.000 A 
ATOM      5  C16 UNL     1     155.132 160.458 168.743  0.00  0.00    +0.000 A 
ATOM      6  C17 UNL     1     155.743 159.615 167.844  0.00  0.00    +0.000 A 
ATOM      7  C18 UNL     1     155.574 161.873 168.829  0.00  0.00    +0.000 C 
ATOM      8  C19 UNL     1     152.539 158.148 170.188  0.00  0.00    +0.000 C 
ENDROOT
BRANCH   1  11
ATOM      9  C2  UNL     1     157.541 156.377 165.535  0.00  0.00    +0.000 C 
ATOM     10  N1  UNL     1     157.356 157.239 166.572  0.00  0.00    +0.000 NA
ATOM     11  C3  UNL     1     156.039 157.462 166.720  0.00  0.00    +0.000 C 
ATOM     12  N2  UNL     1     155.442 156.734 165.775  0.00  0.00    +0.000 NA
ATOM     13  O1  UNL     1     156.345 156.100 165.086  0.00  0.00    +0.000 OA
BRANCH   9  15
ATOM     14  F1  UNL     1     159.874 156.482 165.630  0.00  0.00    +0.000 F 
ATOM     15  C1  UNL     1     158.805 155.844 165.002  0.00  0.00    +0.000 C 
ATOM     16  F2  UNL     1     158.914 154.505 165.263  0.00  0.00    +0.000 F 
ATOM     17  F3  UNL     1     158.968 156.093 163.658  0.00  0.00    +0.000 F 
ENDBRANCH   9  15
ENDBRANCH   1  11
BRANCH   4  18
ATOM     18  O2  UNL     1     153.506 160.896 170.424  0.00  0.00    +0.000 OA
BRANCH  18  19
ATOM     19  C8  UNL     1     153.837 161.309 171.674  0.00  0.00    +0.000 C 
BRANCH  19  20
ATOM     20  C9  UNL     1     154.165 160.375 172.780  0.00  0.00    +0.000 C 
BRANCH  20  21
ATOM     21  C10 UNL     1     155.587 160.303 173.211  0.00  0.00    +0.000 C 
BRANCH  21  22
ATOM     22  C11 UNL     1     156.320 159.363 172.271  0.00  0.00    +0.000 A 
ATOM     23  C12 UNL     1     157.309 159.742 171.386  0.00  0.00    +0.000 A 
ATOM     24  C13 UNL     1     157.720 158.596 170.711  0.00  0.00    +0.000 A 
ATOM     25  N3  UNL     1     156.971 157.606 171.215  0.00  0.00    +0.000 NA
ATOM     26  O3  UNL     1     156.155 158.087 172.133  0.00  0.00    +0.000 OA
BRANCH  24  27
ATOM     27  C14 UNL     1     158.777 158.509 169.681  0.00  0.00    +0.000 C 
ATOM     28  C15 UNL     1     159.094 159.912 169.139  0.00  0.00    +0.000 C 
ENDBRANCH  24  27
ENDBRANCH  21  22
ENDBRANCH  20  21
ENDBRANCH  19  20
ENDBRANCH  18  19
ENDBRANCH   4  18
TORSDOF 8
ENDMDL
MODEL 2
REMARK VINA RESULT:      -5.6      3.897      7.471
REMARK  Name = ./3D_structures\o49_MMV1634556_3D.pdb
REMARK  11 active torsions:
REMARK  status: ('A' for Active; 'I' for Inactive)
REMARK    1  A    between atoms: C1_2  and  C2_5
REMARK    2  A    between atoms: C3_7  and  C4_10
REMARK    3  A    between atoms: C6_12  and  C19_28
REMARK    4  A    between atoms: C7_13  and  O2_14
REMARK    5  A    between atoms: O2_14  and  C8_15
REMARK    6  A    between atoms: C8_15  and  C9_16
REMARK    7  A    between atoms: C9_16  and  C10_17
REMARK    8  A    between atoms: C10_17  and  C11_18
REMARK    9  A    between atoms: C13_20  and  C14_23
REMARK   10  A    between atoms: C14_23  and  C15_24
REMARK   11  A    between atoms: C16_25  and  C18_27
REMARK                            x       y       z     vdW  Elec       q    Type
REMARK                         _______ _______ _______ _____ _____    ______ ____
ROOT
ATOM      1  C4  UNL     1     158.156 158.020 168.535  0.00  0.00    +0.000 A 
ATOM      2  C5  UNL     1     159.420 158.325 168.099  0.00  0.00    +0.000 A 
ATOM      3  C6  UNL     1     159.903 157.917 166.833  0.00  0.00    +0.000 A 
ATOM      4  C7  UNL     1     159.130 157.203 165.996  0.00  0.00    +0.000 A 
ATOM      5  C16 UNL     1     157.822 156.882 166.432  0.00  0.00    +0.000 A 
ATOM      6  C17 UNL     1     157.374 157.289 167.667  0.00  0.00    +0.000 A 
ATOM      7  C18 UNL     1     156.904 156.134 165.536  0.00  0.00    +0.000 C 
ATOM      8  C19 UNL     1     161.291 158.334 166.452  0.00  0.00    +0.000 C 
ENDROOT
BRANCH   1  11
ATOM      9  C2  UNL     1     156.404 159.234 171.454  0.00  0.00    +0.000 C 
ATOM     10  N1  UNL     1     156.489 159.066 170.106  0.00  0.00    +0.000 NA
ATOM     11  C3  UNL     1     157.632 158.420 169.821  0.00  0.00    +0.000 C 
ATOM     12  N2  UNL     1     158.225 158.202 170.997  0.00  0.00    +0.000 NA
ATOM     13  O1  UNL     1     157.485 158.690 171.949  0.00  0.00    +0.000 OA
BRANCH   9  15
ATOM     14  F1  UNL     1     154.101 159.571 171.666  0.00  0.00    +0.000 F 
ATOM     15  C1  UNL     1     155.337 159.885 172.231  0.00  0.00    +0.000 C 
ATOM     16  F2  UNL     1     155.328 159.427 173.520  0.00  0.00    +0.000 F 
ATOM     17  F3  UNL     1     155.413 161.259 172.203  0.00  0.00    +0.000 F 
ENDBRANCH   9  15
ENDBRANCH   1  11
BRANCH   4  18
ATOM     18  O2  UNL     1     159.505 156.762 164.755  0.00  0.00    +0.000 OA
BRANCH  18  19
ATOM     19  C8  UNL     1     159.667 157.380 163.557  0.00  0.00    +0.000 C 
BRANCH  19  20
ATOM     20  C9  UNL     1     158.696 158.358 163.007  0.00  0.00    +0.000 C 
BRANCH  20  21
ATOM     21  C10 UNL     1     158.859 159.781 163.412  0.00  0.00    +0.000 C 
BRANCH  21  22
ATOM     22  C11 UNL     1     157.863 160.075 164.520  0.00  0.00    +0.000 A 
ATOM     23  C12 UNL     1     156.514 159.789 164.468  0.00  0.00    +0.000 A 
ATOM     24  C13 UNL     1     155.956 160.214 165.670  0.00  0.00    +0.000 A 
ATOM     25  N3  UNL     1     156.978 160.724 166.370  0.00  0.00    +0.000 NA
ATOM     26  O3  UNL     1     158.090 160.629 165.667  0.00  0.00    +0.000 OA
BRANCH  24  27
ATOM     27  C14 UNL     1     154.539 160.092 166.077  0.00  0.00    +0.000 C 
ATOM     28  C15 UNL     1     154.197 158.618 166.343  0.00  0.00    +0.000 C 
ENDBRANCH  24  27
ENDBRANCH  21  22
ENDBRANCH  20  21
ENDBRANCH  19  20
ENDBRANCH  18  19
ENDBRANCH   4  18
TORSDOF 8
ENDMDL
MODEL 3
REMARK VINA RESULT:      -5.5      4.945      6.526
REMARK  Name = ./3D_structures\o49_MMV1634556_3D.pdb
REMARK  11 active torsions:
REMARK  status: ('A' for Active; 'I' for Inactive)
REMARK    1  A    between atoms: C1_2  and  C2_5
REMARK    2  A    between atoms: C3_7  and  C4_10
REMARK    3  A    between atoms: C6_12  and  C19_28
REMARK    4  A    between atoms: C7_13  and  O2_14
REMARK    5  A    between atoms: O2_14  and  C8_15
REMARK    6  A    between atoms: C8_15  and  C9_16
REMARK    7  A    between atoms: C9_16  and  C10_17
REMARK    8  A    between atoms: C10_17  and  C11_18
REMARK    9  A    between atoms: C13_20  and  C14_23
REMARK   10  A    between atoms: C14_23  and  C15_24
REMARK   11  A    between atoms: C16_25  and  C18_27
REMARK                            x       y       z     vdW  Elec       q    Type
REMARK                         _______ _______ _______ _____ _____    ______ ____
ROOT
ATOM      1  C4  UNL     1     153.229 160.360 166.841  0.00  0.00    +0.000 A 
ATOM      2  C5  UNL     1     153.178 159.542 167.941  0.00  0.00    +0.000 A 
ATOM      3  C6  UNL     1     154.086 158.474 168.133  0.00  0.00    +0.000 A 
ATOM      4  C7  UNL     1     155.048 158.214 167.230  0.00  0.00    +0.000 A 
ATOM      5  C16 UNL     1     155.114 159.051 166.090  0.00  0.00    +0.000 A 
ATOM      6  C17 UNL     1     154.221 160.083 165.925  0.00  0.00    +0.000 A 
ATOM      7  C18 UNL     1     156.182 158.845 165.079  0.00  0.00    +0.000 C 
ATOM      8  C19 UNL     1     153.951 157.666 169.388  0.00  0.00    +0.000 C 
ENDROOT
BRANCH   1  11
ATOM      9  C2  UNL     1     151.394 163.361 166.011  0.00  0.00    +0.000 C 
ATOM     10  N1  UNL     1     152.540 162.628 165.990  0.00  0.00    +0.000 NA
ATOM     11  C3  UNL     1     152.318 161.459 166.614  0.00  0.00    +0.000 C 
ATOM     12  N2  UNL     1     151.043 161.496 167.005  0.00  0.00    +0.000 NA
ATOM     13  O1  UNL     1     150.514 162.627 166.640  0.00  0.00    +0.000 OA
BRANCH   9  15
ATOM     14  F1  UNL     1     151.877 165.641 166.191  0.00  0.00    +0.000 F 
ATOM     15  C1  UNL     1     151.154 164.703 165.456  0.00  0.00    +0.000 C 
ATOM     16  F2  UNL     1     151.588 164.774 164.159  0.00  0.00    +0.000 F 
ATOM     17  F3  UNL     1     149.839 165.097 165.551  0.00  0.00    +0.000 F 
ENDBRANCH   9  15
ENDBRANCH   1  11
BRANCH   4  18
ATOM     18  O2  UNL     1     155.970 157.207 167.325  0.00  0.00    +0.000 OA
BRANCH  18  19
ATOM     19  C8  UNL     1     157.151 157.084 167.984  0.00  0.00    +0.000 C 
BRANCH  19  20
ATOM     20  C9  UNL     1     158.122 158.197 168.129  0.00  0.00    +0.000 C 
BRANCH  20  21
ATOM     21  C10 UNL     1     158.793 158.347 169.449  0.00  0.00    +0.000 C 
BRANCH  21  22
ATOM     22  C11 UNL     1     157.724 158.585 170.500  0.00  0.00    +0.000 A 
ATOM     23  C12 UNL     1     156.897 159.689 170.552  0.00  0.00    +0.000 A 
ATOM     24  C13 UNL     1     156.066 159.531 171.658  0.00  0.00    +0.000 A 
ATOM     25  N3  UNL     1     156.429 158.362 172.203  0.00  0.00    +0.000 NA
ATOM     26  O3  UNL     1     157.408 157.827 171.500  0.00  0.00    +0.000 OA
BRANCH  24  27
ATOM     27  C14 UNL     1     155.000 160.456 172.100  0.00  0.00    +0.000 C 
ATOM     28  C15 UNL     1     154.741 160.273 173.603  0.00  0.00    +0.000 C 
ENDBRANCH  24  27
ENDBRANCH  21  22
ENDBRANCH  20  21
ENDBRANCH  19  20
ENDBRANCH  18  19
ENDBRANCH   4  18
TORSDOF 8
ENDMDL
MODEL 4
REMARK VINA RESULT:      -5.4      5.008      6.693
REMARK  Name = ./3D_structures\o49_MMV1634556_3D.pdb
REMARK  11 active torsions:
REMARK  status: ('A' for Active; 'I' for Inactive)
REMARK    1  A    between atoms: C1_2  and  C2_5
REMARK    2  A    between atoms: C3_7  and  C4_10
REMARK    3  A    between atoms: C6_12  and  C19_28
REMARK    4  A    between atoms: C7_13  and  O2_14
REMARK    5  A    between atoms: O2_14  and  C8_15
REMARK    6  A    between atoms: C8_15  and  C9_16
REMARK    7  A    between atoms: C9_16  and  C10_17
REMARK    8  A    between atoms: C10_17  and  C11_18
REMARK    9  A    between atoms: C13_20  and  C14_23
REMARK   10  A    between atoms: C14_23  and  C15_24
REMARK   11  A    between atoms: C16_25  and  C18_27
REMARK                            x       y       z     vdW  Elec       q    Type
REMARK                         _______ _______ _______ _____ _____    ______ ____
ROOT
ATOM      1  C4  UNL     1     153.103 160.498 166.997  0.00  0.00    +0.000 A 
ATOM      2  C5  UNL     1     154.078 160.013 166.163  0.00  0.00    +0.000 A 
ATOM      3  C6  UNL     1     154.823 158.849 166.466  0.00  0.00    +0.000 A 
ATOM      4  C7  UNL     1     154.602 158.162 167.600  0.00  0.00    +0.000 A 
ATOM      5  C16 UNL     1     153.596 158.649 168.470  0.00  0.00    +0.000 A 
ATOM      6  C17 UNL     1     152.885 159.783 168.155  0.00  0.00    +0.000 A 
ATOM      7  C18 UNL     1     153.272 157.910 169.716  0.00  0.00    +0.000 C 
ATOM      8  C19 UNL     1     155.843 158.398 165.465  0.00  0.00    +0.000 C 
ENDROOT
BRANCH   1  11
ATOM      9  C2  UNL     1     151.598 163.621 165.976  0.00  0.00    +0.000 C 
ATOM     10  N1  UNL     1     152.630 162.735 165.941  0.00  0.00    +0.000 NA
ATOM     11  C3  UNL     1     152.325 161.684 166.720  0.00  0.00    +0.000 C 
ATOM     12  N2  UNL     1     151.113 161.943 167.216  0.00  0.00    +0.000 NA
ATOM     13  O1  UNL     1     150.701 163.091 166.765  0.00  0.00    +0.000 OA
BRANCH   9  15
ATOM     14  F1  UNL     1     150.131 165.265 165.195  0.00  0.00    +0.000 F 
ATOM     15  C1  UNL     1     151.478 164.915 165.285  0.00  0.00    +0.000 C 
ATOM     16  F2  UNL     1     152.113 165.901 165.990  0.00  0.00    +0.000 F 
ATOM     17  F3  UNL     1     151.933 164.875 163.987  0.00  0.00    +0.000 F 
ENDBRANCH   9  15
ENDBRANCH   1  11
BRANCH   4  18
ATOM     18  O2  UNL     1     155.267 157.028 167.981  0.00  0.00    +0.000 OA
BRANCH  18  19
ATOM     19  C8  UNL     1     156.418 156.809 168.668  0.00  0.00    +0.000 C 
BRANCH  19  20
ATOM     20  C9  UNL     1     157.532 157.788 168.722  0.00  0.00    +0.000 C 
BRANCH  20  21
ATOM     21  C10 UNL     1     157.989 158.226 170.068  0.00  0.00    +0.000 C 
BRANCH  21  22
ATOM     22  C11 UNL     1     156.911 159.111 170.669  0.00  0.00    +0.000 A 
ATOM     23  C12 UNL     1     156.386 158.968 171.937  0.00  0.00    +0.000 A 
ATOM     24  C13 UNL     1     155.429 159.966 172.102  0.00  0.00    +0.000 A 
ATOM     25  N3  UNL     1     155.429 160.645 170.947  0.00  0.00    +0.000 NA
ATOM     26  O3  UNL     1     156.312 160.119 170.121  0.00  0.00    +0.000 OA
BRANCH  24  27
ATOM     27  C14 UNL     1     154.619 160.220 173.313  0.00  0.00    +0.000 C 
ATOM     28  C15 UNL     1     153.134 160.331 172.933  0.00  0.00    +0.000 C 
ENDBRANCH  24  27
ENDBRANCH  21  22
ENDBRANCH  20  21
ENDBRANCH  19  20
ENDBRANCH  18  19
ENDBRANCH   4  18
TORSDOF 8
ENDMDL
MODEL 5
REMARK VINA RESULT:      -5.4      5.208      6.600
REMARK  Name = ./3D_structures\o49_MMV1634556_3D.pdb
REMARK  11 active torsions:
REMARK  status: ('A' for Active; 'I' for Inactive)
REMARK    1  A    between atoms: C1_2  and  C2_5
REMARK    2  A    between atoms: C3_7  and  C4_10
REMARK    3  A    between atoms: C6_12  and  C19_28
REMARK    4  A    between atoms: C7_13  and  O2_14
REMARK    5  A    between atoms: O2_14  and  C8_15
REMARK    6  A    between atoms: C8_15  and  C9_16
REMARK    7  A    between atoms: C9_16  and  C10_17
REMARK    8  A    between atoms: C10_17  and  C11_18
REMARK    9  A    between atoms: C13_20  and  C14_23
REMARK   10  A    between atoms: C14_23  and  C15_24
REMARK   11  A    between atoms: C16_25  and  C18_27
REMARK                            x       y       z     vdW  Elec       q    Type
REMARK                         _______ _______ _______ _____ _____    ______ ____
ROOT
ATOM      1  C4  UNL     1     153.151 160.448 166.553  0.00  0.00    +0.000 A 
ATOM      2  C5  UNL     1     152.802 160.125 167.839  0.00  0.00    +0.000 A 
ATOM      3  C6  UNL     1     153.314 158.982 168.498  0.00  0.00    +0.000 A 
ATOM      4  C7  UNL     1     154.177 158.157 167.880  0.00  0.00    +0.000 A 
ATOM      5  C16 UNL     1     154.549 158.479 166.552  0.00  0.00    +0.000 A 
ATOM      6  C17 UNL     1     154.037 159.594 165.931  0.00  0.00    +0.000 A 
ATOM      7  C18 UNL     1     155.532 157.633 165.830  0.00  0.00    +0.000 C 
ATOM      8  C19 UNL     1     152.883 158.746 169.913  0.00  0.00    +0.000 C 
ENDROOT
BRANCH   1  11
ATOM      9  C2  UNL     1     151.859 163.588 165.312  0.00  0.00    +0.000 C 
ATOM     10  N1  UNL     1     152.268 162.797 166.342  0.00  0.00    +0.000 NA
ATOM     11  C3  UNL     1     152.646 161.606 165.850  0.00  0.00    +0.000 C 
ATOM     12  N2  UNL     1     152.464 161.687 164.530  0.00  0.00    +0.000 NA
ATOM     13  O1  UNL     1     151.999 162.864 164.232  0.00  0.00    +0.000 OA
BRANCH   9  15
ATOM     14  F1  UNL     1     151.675 165.617 164.168  0.00  0.00    +0.000 F 
ATOM     15  C1  UNL     1     151.357 164.970 165.362  0.00  0.00    +0.000 C 
ATOM     16  F2  UNL     1     149.994 164.987 165.489  0.00  0.00    +0.000 F 
ATOM     17  F3  UNL     1     151.947 165.721 166.353  0.00  0.00    +0.000 F 
ENDBRANCH   9  15
ENDBRANCH   1  11
BRANCH   4  18
ATOM     18  O2  UNL     1     154.727 157.030 168.430  0.00  0.00    +0.000 OA
BRANCH  18  19
ATOM     19  C8  UNL     1     155.858 156.800 169.145  0.00  0.00    +0.000 C 
BRANCH  19  20
ATOM     20  C9  UNL     1     156.521 157.835 169.976  0.00  0.00    +0.000 C 
BRANCH  20  21
ATOM     21  C10 UNL     1     157.811 158.385 169.479  0.00  0.00    +0.000 C 
BRANCH  21  22
ATOM     22  C11 UNL     1     157.504 159.542 168.546  0.00  0.00    +0.000 A 
ATOM     23  C12 UNL     1     156.675 160.604 168.848  0.00  0.00    +0.000 A 
ATOM     24  C13 UNL     1     156.655 161.441 167.736  0.00  0.00    +0.000 A 
ATOM     25  N3  UNL     1     157.457 160.851 166.839  0.00  0.00    +0.000 NA
ATOM     26  O3  UNL     1     157.944 159.734 167.344  0.00  0.00    +0.000 OA
BRANCH  24  27
ATOM     27  C14 UNL     1     155.920 162.718 167.605  0.00  0.00    +0.000 C 
ATOM     28  C15 UNL     1     155.005 162.919 168.823  0.00  0.00    +0.000 C 
ENDBRANCH  24  27
ENDBRANCH  21  22
ENDBRANCH  20  21
ENDBRANCH  19  20
ENDBRANCH  18  19
ENDBRANCH   4  18
TORSDOF 8
ENDMDL
MODEL 6
REMARK VINA RESULT:      -5.4      5.099      6.449
REMARK  Name = ./3D_structures\o49_MMV1634556_3D.pdb
REMARK  11 active torsions:
REMARK  status: ('A' for Active; 'I' for Inactive)
REMARK    1  A    between atoms: C1_2  and  C2_5
REMARK    2  A    between atoms: C3_7  and  C4_10
REMARK    3  A    between atoms: C6_12  and  C19_28
REMARK    4  A    between atoms: C7_13  and  O2_14
REMARK    5  A    between atoms: O2_14  and  C8_15
REMARK    6  A    between atoms: C8_15  and  C9_16
REMARK    7  A    between atoms: C9_16  and  C10_17
REMARK    8  A    between atoms: C10_17  and  C11_18
REMARK    9  A    between atoms: C13_20  and  C14_23
REMARK   10  A    between atoms: C14_23  and  C15_24
REMARK   11  A    between atoms: C16_25  and  C18_27
REMARK                            x       y       z     vdW  Elec       q    Type
REMARK                         _______ _______ _______ _____ _____    ______ ____
ROOT
ATOM      1  C4  UNL     1     153.299 160.330 166.370  0.00  0.00    +0.000 A 
ATOM      2  C5  UNL     1     154.203 159.475 165.792  0.00  0.00    +0.000 A 
ATOM      3  C6  UNL     1     154.735 158.359 166.480  0.00  0.00    +0.000 A 
ATOM      4  C7  UNL     1     154.370 158.089 167.746  0.00  0.00    +0.000 A 
ATOM      5  C16 UNL     1     153.436 158.961 168.354  0.00  0.00    +0.000 A 
ATOM      6  C17 UNL     1     152.933 160.040 167.667  0.00  0.00    +0.000 A 
ATOM      7  C18 UNL     1     152.958 158.691 169.734  0.00  0.00    +0.000 C 
ATOM      8  C19 UNL     1     155.693 157.478 165.737  0.00  0.00    +0.000 C 
ENDROOT
BRANCH   1  11
ATOM      9  C2  UNL     1     152.015 163.488 165.169  0.00  0.00    +0.000 C 
ATOM     10  N1  UNL     1     152.601 162.739 166.142  0.00  0.00    +0.000 NA
ATOM     11  C3  UNL     1     152.736 161.479 165.697  0.00  0.00    +0.000 C 
ATOM     12  N2  UNL     1     152.234 161.478 164.460  0.00  0.00    +0.000 NA
ATOM     13  O1  UNL     1     151.814 162.673 164.166  0.00  0.00    +0.000 OA
BRANCH   9  15
ATOM     14  F1  UNL     1     152.152 165.485 166.375  0.00  0.00    +0.000 F 
ATOM     15  C1  UNL     1     151.666 164.917 165.198  0.00  0.00    +0.000 C 
ATOM     16  F2  UNL     1     152.249 165.579 164.151  0.00  0.00    +0.000 F 
ATOM     17  F3  UNL     1     150.308 165.138 165.218  0.00  0.00    +0.000 F 
ENDBRANCH   9  15
ENDBRANCH   1  11
BRANCH   4  18
ATOM     18  O2  UNL     1     154.827 157.036 168.493  0.00  0.00    +0.000 OA
BRANCH  18  19
ATOM     19  C8  UNL     1     155.893 156.873 169.318  0.00  0.00    +0.000 C 
BRANCH  19  20
ATOM     20  C9  UNL     1     157.220 157.486 169.064  0.00  0.00    +0.000 C 
BRANCH  20  21
ATOM     21  C10 UNL     1     157.700 158.500 170.042  0.00  0.00    +0.000 C 
BRANCH  21  22
ATOM     22  C11 UNL     1     156.877 159.763 169.858  0.00  0.00    +0.000 A 
ATOM     23  C12 UNL     1     156.889 160.557 168.729  0.00  0.00    +0.000 A 
ATOM     24  C13 UNL     1     156.007 161.610 168.957  0.00  0.00    +0.000 A 
ATOM     25  N3  UNL     1     155.519 161.399 170.187  0.00  0.00    +0.000 NA
ATOM     26  O3  UNL     1     156.050 160.302 170.694  0.00  0.00    +0.000 OA
BRANCH  24  27
ATOM     27  C14 UNL     1     155.675 162.702 168.016  0.00  0.00    +0.000 C 
ATOM     28  C15 UNL     1     156.364 162.455 166.666  0.00  0.00    +0.000 C 
ENDBRANCH  24  27
ENDBRANCH  21  22
ENDBRANCH  20  21
ENDBRANCH  19  20
ENDBRANCH  18  19
ENDBRANCH   4  18
TORSDOF 8
ENDMDL
MODEL 7
REMARK VINA RESULT:      -5.4      1.714      2.666
REMARK  Name = ./3D_structures\o49_MMV1634556_3D.pdb
REMARK  11 active torsions:
REMARK  status: ('A' for Active; 'I' for Inactive)
REMARK    1  A    between atoms: C1_2  and  C2_5
REMARK    2  A    between atoms: C3_7  and  C4_10
REMARK    3  A    between atoms: C6_12  and  C19_28
REMARK    4  A    between atoms: C7_13  and  O2_14
REMARK    5  A    between atoms: O2_14  and  C8_15
REMARK    6  A    between atoms: C8_15  and  C9_16
REMARK    7  A    between atoms: C9_16  and  C10_17
REMARK    8  A    between atoms: C10_17  and  C11_18
REMARK    9  A    between atoms: C13_20  and  C14_23
REMARK   10  A    between atoms: C14_23  and  C15_24
REMARK   11  A    between atoms: C16_25  and  C18_27
REMARK                            x       y       z     vdW  Elec       q    Type
REMARK                         _______ _______ _______ _____ _____    ______ ____
ROOT
ATOM      1  C4  UNL     1     155.295 157.801 166.704  0.00  0.00    +0.000 A 
ATOM      2  C5  UNL     1     154.867 158.916 166.030  0.00  0.00    +0.000 A 
ATOM      3  C6  UNL     1     153.844 159.756 166.530  0.00  0.00    +0.000 A 
ATOM      4  C7  UNL     1     153.244 159.492 167.704  0.00  0.00    +0.000 A 
ATOM      5  C16 UNL     1     153.678 158.346 168.413  0.00  0.00    +0.000 A 
ATOM      6  C17 UNL     1     154.673 157.543 167.907  0.00  0.00    +0.000 A 
ATOM      7  C18 UNL     1     153.087 158.024 169.736  0.00  0.00    +0.000 C 
ATOM      8  C19 UNL     1     153.479 160.963 165.719  0.00  0.00    +0.000 C 
ENDROOT
BRANCH   1  11
ATOM      9  C2  UNL     1     157.512 155.434 165.109  0.00  0.00    +0.000 C 
ATOM     10  N1  UNL     1     156.303 156.052 165.199  0.00  0.00    +0.000 NA
ATOM     11  C3  UNL     1     156.336 156.921 166.222  0.00  0.00    +0.000 C 
ATOM     12  N2  UNL     1     157.562 156.821 166.740  0.00  0.00    +0.000 NA
ATOM     13  O1  UNL     1     158.241 155.939 166.070  0.00  0.00    +0.000 OA
BRANCH   9  15
ATOM     14  F1  UNL     1     157.714 154.864 162.851  0.00  0.00    +0.000 F 
ATOM     15  C1  UNL     1     157.947 154.408 164.148  0.00  0.00    +0.000 C 
ATOM     16  F2  UNL     1     159.291 154.173 164.265  0.00  0.00    +0.000 F 
ATOM     17  F3  UNL     1     157.237 153.234 164.257  0.00  0.00    +0.000 F 
ENDBRANCH   9  15
ENDBRANCH   1  11
BRANCH   4  18
ATOM     18  O2  UNL     1     152.249 160.242 168.270  0.00  0.00    +0.000 OA
BRANCH  18  19
ATOM     19  C8  UNL     1     152.231 161.447 168.895  0.00  0.00    +0.000 C 
BRANCH  19  20
ATOM     20  C9  UNL     1     153.045 161.753 170.097  0.00  0.00    +0.000 C 
BRANCH  20  21
ATOM     21  C10 UNL     1     154.490 162.044 169.886  0.00  0.00    +0.000 C 
BRANCH  21  22
ATOM     22  C11 UNL     1     155.294 160.893 170.465  0.00  0.00    +0.000 A 
ATOM     23  C12 UNL     1     156.392 160.314 169.862  0.00  0.00    +0.000 A 
ATOM     24  C13 UNL     1     156.838 159.300 170.706  0.00  0.00    +0.000 A 
ATOM     25  N3  UNL     1     156.001 159.322 171.752  0.00  0.00    +0.000 NA
ATOM     26  O3  UNL     1     155.101 160.271 171.583  0.00  0.00    +0.000 OA
BRANCH  24  27
ATOM     27  C14 UNL     1     158.005 158.418 170.486  0.00  0.00    +0.000 C 
ATOM     28  C15 UNL     1     158.840 158.942 169.307  0.00  0.00    +0.000 C 
ENDBRANCH  24  27
ENDBRANCH  21  22
ENDBRANCH  20  21
ENDBRANCH  19  20
ENDBRANCH  18  19
ENDBRANCH   4  18
TORSDOF 8
ENDMDL
MODEL 8
REMARK VINA RESULT:      -5.2      1.669      3.304
REMARK  Name = ./3D_structures\o49_MMV1634556_3D.pdb
REMARK  11 active torsions:
REMARK  status: ('A' for Active; 'I' for Inactive)
REMARK    1  A    between atoms: C1_2  and  C2_5
REMARK    2  A    between atoms: C3_7  and  C4_10
REMARK    3  A    between atoms: C6_12  and  C19_28
REMARK    4  A    between atoms: C7_13  and  O2_14
REMARK    5  A    between atoms: O2_14  and  C8_15
REMARK    6  A    between atoms: C8_15  and  C9_16
REMARK    7  A    between atoms: C9_16  and  C10_17
REMARK    8  A    between atoms: C10_17  and  C11_18
REMARK    9  A    between atoms: C13_20  and  C14_23
REMARK   10  A    between atoms: C14_23  and  C15_24
REMARK   11  A    between atoms: C16_25  and  C18_27
REMARK                            x       y       z     vdW  Elec       q    Type
REMARK                         _______ _______ _______ _____ _____    ______ ____
ROOT
ATOM      1  C4  UNL     1     156.256 157.289 167.939  0.00  0.00    +0.000 A 
ATOM      2  C5  UNL     1     157.073 157.741 168.943  0.00  0.00    +0.000 A 
ATOM      3  C6  UNL     1     156.567 158.368 170.107  0.00  0.00    +0.000 A 
ATOM      4  C7  UNL     1     155.245 158.548 170.276  0.00  0.00    +0.000 A 
ATOM      5  C16 UNL     1     154.389 158.084 169.248  0.00  0.00    +0.000 A 
ATOM      6  C17 UNL     1     154.903 157.478 168.126  0.00  0.00    +0.000 A 
ATOM      7  C18 UNL     1     152.917 158.211 169.395  0.00  0.00    +0.000 C 
ATOM      8  C19 UNL     1     157.554 158.795 171.150  0.00  0.00    +0.000 C 
ENDROOT
BRANCH   1  11
ATOM      9  C2  UNL     1     157.961 155.636 165.215  0.00  0.00    +0.000 C 
ATOM     10  N1  UNL     1     157.958 156.148 166.476  0.00  0.00    +0.000 NA
ATOM     11  C3  UNL     1     156.739 156.646 166.738  0.00  0.00    +0.000 C 
ATOM     12  N2  UNL     1     156.017 156.431 165.636  0.00  0.00    +0.000 NA
ATOM     13  O1  UNL     1     156.756 155.833 164.749  0.00  0.00    +0.000 OA
BRANCH   9  15
ATOM     14  F1  UNL     1     158.885 155.163 163.121  0.00  0.00    +0.000 F 
ATOM     15  C1  UNL     1     159.067 154.988 164.492  0.00  0.00    +0.000 C 
ATOM     16  F2  UNL     1     160.264 155.562 164.824  0.00  0.00    +0.000 F 
ATOM     17  F3  UNL     1     159.111 153.626 164.685  0.00  0.00    +0.000 F 
ENDBRANCH   9  15
ENDBRANCH   1  11
BRANCH   4  18
ATOM     18  O2  UNL     1     154.660 159.140 171.362  0.00  0.00    +0.000 OA
BRANCH  18  19
ATOM     19  C8  UNL     1     154.588 160.425 171.797  0.00  0.00    +0.000 C 
BRANCH  19  20
ATOM     20  C9  UNL     1     154.064 161.537 170.965  0.00  0.00    +0.000 C 
BRANCH  20  21
ATOM     21  C10 UNL     1     155.057 162.487 170.395  0.00  0.00    +0.000 C 
BRANCH  21  22
ATOM     22  C11 UNL     1     155.636 161.868 169.135  0.00  0.00    +0.000 A 
ATOM     23  C12 UNL     1     154.898 161.464 168.041  0.00  0.00    +0.000 A 
ATOM     24  C13 UNL     1     155.794 160.950 167.107  0.00  0.00    +0.000 A 
ATOM     25  N3  UNL     1     157.001 161.070 167.676  0.00  0.00    +0.000 NA
ATOM     26  O3  UNL     1     156.877 161.614 168.872  0.00  0.00    +0.000 OA
BRANCH  24  27
ATOM     27  C14 UNL     1     155.462 160.417 165.767  0.00  0.00    +0.000 C 
ATOM     28  C15 UNL     1     153.966 160.074 165.698  0.00  0.00    +0.000 C 
ENDBRANCH  24  27
ENDBRANCH  21  22
ENDBRANCH  20  21
ENDBRANCH  19  20
ENDBRANCH  18  19
ENDBRANCH   4  18
TORSDOF 8
ENDMDL
MODEL 9
REMARK VINA RESULT:      -5.2      5.302      6.428
REMARK  Name = ./3D_structures\o49_MMV1634556_3D.pdb
REMARK  11 active torsions:
REMARK  status: ('A' for Active; 'I' for Inactive)
REMARK    1  A    between atoms: C1_2  and  C2_5
REMARK    2  A    between atoms: C3_7  and  C4_10
REMARK    3  A    between atoms: C6_12  and  C19_28
REMARK    4  A    between atoms: C7_13  and  O2_14
REMARK    5  A    between atoms: O2_14  and  C8_15
REMARK    6  A    between atoms: C8_15  and  C9_16
REMARK    7  A    between atoms: C9_16  and  C10_17
REMARK    8  A    between atoms: C10_17  and  C11_18
REMARK    9  A    between atoms: C13_20  and  C14_23
REMARK   10  A    between atoms: C14_23  and  C15_24
REMARK   11  A    between atoms: C16_25  and  C18_27
REMARK                            x       y       z     vdW  Elec       q    Type
REMARK                         _______ _______ _______ _____ _____    ______ ____
ROOT
ATOM      1  C4  UNL     1     153.028 160.550 166.553  0.00  0.00    +0.000 A 
ATOM      2  C5  UNL     1     152.663 160.235 167.836  0.00  0.00    +0.000 A 
ATOM      3  C6  UNL     1     153.153 159.087 168.503  0.00  0.00    +0.000 A 
ATOM      4  C7  UNL     1     154.010 158.248 167.895  0.00  0.00    +0.000 A 
ATOM      5  C16 UNL     1     154.398 158.561 166.570  0.00  0.00    +0.000 A 
ATOM      6  C17 UNL     1     153.908 159.682 165.942  0.00  0.00    +0.000 A 
ATOM      7  C18 UNL     1     155.376 157.699 165.860  0.00  0.00    +0.000 C 
ATOM      8  C19 UNL     1     152.706 158.861 169.915  0.00  0.00    +0.000 C 
ENDROOT
BRANCH   1  11
ATOM      9  C2  UNL     1     151.740 163.684 165.294  0.00  0.00    +0.000 C 
ATOM     10  N1  UNL     1     152.086 162.875 166.333  0.00  0.00    +0.000 NA
ATOM     11  C3  UNL     1     152.546 161.712 165.842  0.00  0.00    +0.000 C 
ATOM     12  N2  UNL     1     152.476 161.829 164.514  0.00  0.00    +0.000 NA
ATOM     13  O1  UNL     1     151.998 163.000 164.211  0.00  0.00    +0.000 OA
BRANCH   9  15
ATOM     14  F1  UNL     1     151.746 165.732 166.419  0.00  0.00    +0.000 F 
ATOM     15  C1  UNL     1     151.189 165.047 165.340  0.00  0.00    +0.000 C 
ATOM     16  F2  UNL     1     151.512 165.738 164.203  0.00  0.00    +0.000 F 
ATOM     17  F3  UNL     1     149.829 165.071 165.553  0.00  0.00    +0.000 F 
ENDBRANCH   9  15
ENDBRANCH   1  11
BRANCH   4  18
ATOM     18  O2  UNL     1     154.539 157.115 168.454  0.00  0.00    +0.000 OA
BRANCH  18  19
ATOM     19  C8  UNL     1     155.686 156.861 169.134  0.00  0.00    +0.000 C 
BRANCH  19  20
ATOM     20  C9  UNL     1     155.982 157.428 170.473  0.00  0.00    +0.000 C 
BRANCH  20  21
ATOM     21  C10 UNL     1     156.579 158.791 170.518  0.00  0.00    +0.000 C 
BRANCH  21  22
ATOM     22  C11 UNL     1     157.556 158.919 169.363  0.00  0.00    +0.000 A 
ATOM     23  C12 UNL     1     158.831 158.392 169.344  0.00  0.00    +0.000 A 
ATOM     24  C13 UNL     1     159.398 158.729 168.117  0.00  0.00    +0.000 A 
ATOM     25  N3  UNL     1     158.452 159.428 167.475  0.00  0.00    +0.000 NA
ATOM     26  O3  UNL     1     157.377 159.524 168.233  0.00  0.00    +0.000 OA
BRANCH  24  27
ATOM     27  C14 UNL     1     160.747 158.360 167.638  0.00  0.00    +0.000 C 
ATOM     28  C15 UNL     1     161.546 159.629 167.299  0.00  0.00    +0.000 C 
ENDBRANCH  24  27
ENDBRANCH  21  22
ENDBRANCH  20  21
ENDBRANCH  19  20
ENDBRANCH  18  19
ENDBRANCH   4  18
TORSDOF 8
ENDMDL
