MODEL 1
REMARK VINA RESULT:      -5.3      0.000      0.000
REMARK  Name = ./3D_structures\o4_MMV1580800_3D.pdb
REMARK  4 active torsions:
REMARK  status: ('A' for Active; 'I' for Inactive)
REMARK    1  A    between atoms: C2_3  and  O1_4
REMARK    2  A    between atoms: O1_4  and  C3_5
REMARK    3  A    between atoms: C4_6  and  C5_7
REMARK    4  A    between atoms: C7_10  and  N2_11
REMARK                            x       y       z     vdW  Elec       q    Type
REMARK                         _______ _______ _______ _____ _____    ______ ____
ROOT
ATOM      1  C3  UNL     1     148.108 164.885 167.476  0.00  0.00    +0.000 A 
ATOM      2  C4  UNL     1     146.811 164.813 167.984  0.00  0.00    +0.000 A 
ATOM      3  C6  UNL     1     145.787 165.570 167.455  0.00  0.00    +0.000 A 
ATOM      4  C7  UNL     1     146.010 166.438 166.394  0.00  0.00    +0.000 A 
ATOM      5  C8  UNL     1     147.289 166.512 165.891  0.00  0.00    +0.000 A 
ATOM      6  C9  UNL     1     148.289 165.754 166.428  0.00  0.00    +0.000 A 
ENDROOT
BRANCH   4   7
ATOM      7  N2  UNL     1     144.940 167.214 165.861  0.00  0.00    +0.000 N 
ATOM      8  O2  UNL     1     143.787 166.635 165.429  0.00  0.00    +0.000 OA
ATOM      9  O3  UNL     1     145.054 168.449 165.787  0.00  0.00    +0.000 OA
ENDBRANCH   4   7
BRANCH   2  10
ATOM     10  C5  UNL     1     146.552 163.924 169.080  0.00  0.00    +0.000 C 
ATOM     11  N1  UNL     1     146.363 163.200 169.972  0.00  0.00    +0.000 NA
ENDBRANCH   2  10
BRANCH   1  12
ATOM     12  O1  UNL     1     149.066 164.108 168.044  0.00  0.00    +0.000 OA
BRANCH  12  15
ATOM     13 CL1  UNL     1     148.452 161.223 167.639  0.00  0.00    +0.000 Cl
ATOM     14  C1  UNL     1     149.932 162.068 167.220  0.00  0.00    +0.000 A 
ATOM     15  C2  UNL     1     150.092 163.421 167.471  0.00  0.00    +0.000 A 
ATOM     16  C10 UNL     1     151.302 163.986 167.119  0.00  0.00    +0.000 A 
ATOM     17  C11 UNL     1     152.279 163.206 166.545  0.00  0.00    +0.000 A 
ATOM     18  C12 UNL     1     152.125 161.865 166.293  0.00  0.00    +0.000 A 
ATOM     19  C13 UNL     1     150.924 161.291 166.640  0.00  0.00    +0.000 A 
ENDBRANCH  12  15
ENDBRANCH   1  12
TORSDOF 4
ENDMDL
MODEL 2
REMARK VINA RESULT:      -5.1     11.475     13.136
REMARK  Name = ./3D_structures\o4_MMV1580800_3D.pdb
REMARK  4 active torsions:
REMARK  status: ('A' for Active; 'I' for Inactive)
REMARK    1  A    between atoms: C2_3  and  O1_4
REMARK    2  A    between atoms: O1_4  and  C3_5
REMARK    3  A    between atoms: C4_6  and  C5_7
REMARK    4  A    between atoms: C7_10  and  N2_11
REMARK                            x       y       z     vdW  Elec       q    Type
REMARK                         _______ _______ _______ _____ _____    ______ ____
ROOT
ATOM      1  C3  UNL     1     158.259 157.892 167.301  0.00  0.00    +0.000 A 
ATOM      2  C4  UNL     1     156.938 157.765 167.728  0.00  0.00    +0.000 A 
ATOM      3  C6  UNL     1     156.579 157.998 169.039  0.00  0.00    +0.000 A 
ATOM      4  C7  UNL     1     157.524 158.368 169.988  0.00  0.00    +0.000 A 
ATOM      5  C8  UNL     1     158.829 158.494 169.570  0.00  0.00    +0.000 A 
ATOM      6  C9  UNL     1     159.165 158.260 168.267  0.00  0.00    +0.000 A 
ENDROOT
BRANCH   4   7
ATOM      7  N2  UNL     1     157.135 158.604 171.338  0.00  0.00    +0.000 N 
ATOM      8  O2  UNL     1     156.612 157.615 172.112  0.00  0.00    +0.000 OA
ATOM      9  O3  UNL     1     157.272 159.738 171.828  0.00  0.00    +0.000 OA
ENDBRANCH   4   7
BRANCH   2  10
ATOM     10  C5  UNL     1     155.941 157.384 166.770  0.00  0.00    +0.000 C 
ATOM     11  N1  UNL     1     155.127 157.095 165.989  0.00  0.00    +0.000 NA
ENDBRANCH   2  10
BRANCH   1  12
ATOM     12  O1  UNL     1     158.540 157.650 165.994  0.00  0.00    +0.000 OA
BRANCH  12  15
ATOM     13 CL1  UNL     1     161.414 158.109 165.365  0.00  0.00    +0.000 Cl
ATOM     14  C1  UNL     1     160.476 156.654 165.073  0.00  0.00    +0.000 A 
ATOM     15  C2  UNL     1     159.135 156.574 165.410  0.00  0.00    +0.000 A 
ATOM     16  C10 UNL     1     158.485 155.391 165.122  0.00  0.00    +0.000 A 
ATOM     17  C11 UNL     1     159.173 154.359 164.528  0.00  0.00    +0.000 A 
ATOM     18  C12 UNL     1     160.503 154.432 164.193  0.00  0.00    +0.000 A 
ATOM     19  C13 UNL     1     161.162 155.608 164.474  0.00  0.00    +0.000 A 
ENDBRANCH  12  15
ENDBRANCH   1  12
TORSDOF 4
ENDMDL
MODEL 3
REMARK VINA RESULT:      -5.0      1.834      2.310
REMARK  Name = ./3D_structures\o4_MMV1580800_3D.pdb
REMARK  4 active torsions:
REMARK  status: ('A' for Active; 'I' for Inactive)
REMARK    1  A    between atoms: C2_3  and  O1_4
REMARK    2  A    between atoms: O1_4  and  C3_5
REMARK    3  A    between atoms: C4_6  and  C5_7
REMARK    4  A    between atoms: C7_10  and  N2_11
REMARK                            x       y       z     vdW  Elec       q    Type
REMARK                         _______ _______ _______ _____ _____    ______ ____
ROOT
ATOM      1  C3  UNL     1     147.792 164.516 167.446  0.00  0.00    +0.000 A 
ATOM      2  C4  UNL     1     146.443 164.420 167.784  0.00  0.00    +0.000 A 
ATOM      3  C6  UNL     1     145.505 165.284 167.259  0.00  0.00    +0.000 A 
ATOM      4  C7  UNL     1     145.871 166.288 166.371  0.00  0.00    +0.000 A 
ATOM      5  C8  UNL     1     147.202 166.386 166.036  0.00  0.00    +0.000 A 
ATOM      6  C9  UNL     1     148.115 165.521 166.566  0.00  0.00    +0.000 A 
ENDROOT
BRANCH   4   7
ATOM      7  N2  UNL     1     144.888 167.172 165.840  0.00  0.00    +0.000 N 
ATOM      8  O2  UNL     1     143.688 166.716 165.390  0.00  0.00    +0.000 OA
ATOM      9  O3  UNL     1     145.125 168.391 165.783  0.00  0.00    +0.000 OA
ENDBRANCH   4   7
BRANCH   2  10
ATOM     10  C5  UNL     1     146.037 163.392 168.698  0.00  0.00    +0.000 C 
ATOM     11  N1  UNL     1     145.702 162.545 169.424  0.00  0.00    +0.000 NA
ENDBRANCH   2  10
BRANCH   1  12
ATOM     12  O1  UNL     1     148.660 163.629 167.999  0.00  0.00    +0.000 OA
BRANCH  12  15
ATOM     13 CL1  UNL     1     150.782 161.543 168.085  0.00  0.00    +0.000 Cl
ATOM     14  C1  UNL     1     150.543 162.869 169.209  0.00  0.00    +0.000 A 
ATOM     15  C2  UNL     1     149.504 163.772 169.057  0.00  0.00    +0.000 A 
ATOM     16  C10 UNL     1     149.394 164.768 170.008  0.00  0.00    +0.000 A 
ATOM     17  C11 UNL     1     150.296 164.827 171.044  0.00  0.00    +0.000 A 
ATOM     18  C12 UNL     1     151.329 163.936 171.198  0.00  0.00    +0.000 A 
ATOM     19  C13 UNL     1     151.449 162.938 170.258  0.00  0.00    +0.000 A 
ENDBRANCH  12  15
ENDBRANCH   1  12
TORSDOF 4
ENDMDL
MODEL 4
REMARK VINA RESULT:      -5.0      2.791      3.450
REMARK  Name = ./3D_structures\o4_MMV1580800_3D.pdb
REMARK  4 active torsions:
REMARK  status: ('A' for Active; 'I' for Inactive)
REMARK    1  A    between atoms: C2_3  and  O1_4
REMARK    2  A    between atoms: O1_4  and  C3_5
REMARK    3  A    between atoms: C4_6  and  C5_7
REMARK    4  A    between atoms: C7_10  and  N2_11
REMARK                            x       y       z     vdW  Elec       q    Type
REMARK                         _______ _______ _______ _____ _____    ______ ____
ROOT
ATOM      1  C3  UNL     1     146.943 164.751 167.371  0.00  0.00    +0.000 A 
ATOM      2  C4  UNL     1     145.774 164.129 167.808  0.00  0.00    +0.000 A 
ATOM      3  C6  UNL     1     144.564 164.345 167.182  0.00  0.00    +0.000 A 
ATOM      4  C7  UNL     1     144.464 165.195 166.087  0.00  0.00    +0.000 A 
ATOM      5  C8  UNL     1     145.616 165.811 165.653  0.00  0.00    +0.000 A 
ATOM      6  C9  UNL     1     146.804 165.584 166.287  0.00  0.00    +0.000 A 
ENDROOT
BRANCH   4   7
ATOM      7  N2  UNL     1     143.206 165.407 165.453  0.00  0.00    +0.000 N 
ATOM      8  O2  UNL     1     142.458 164.369 164.991  0.00  0.00    +0.000 OA
ATOM      9  O3  UNL     1     142.774 166.564 165.315  0.00  0.00    +0.000 OA
ENDBRANCH   4   7
BRANCH   2  10
ATOM     10  C5  UNL     1     145.848 163.245 168.936  0.00  0.00    +0.000 C 
ATOM     11  N1  UNL     1     145.922 162.541 169.861  0.00  0.00    +0.000 NA
ENDBRANCH   2  10
BRANCH   1  12
ATOM     12  O1  UNL     1     148.099 164.489 168.034  0.00  0.00    +0.000 OA
BRANCH  12  15
ATOM     13 CL1  UNL     1     150.336 165.790 166.563  0.00  0.00    +0.000 Cl
ATOM     14  C1  UNL     1     149.928 165.969 168.261  0.00  0.00    +0.000 A 
ATOM     15  C2  UNL     1     148.858 165.296 168.825  0.00  0.00    +0.000 A 
ATOM     16  C10 UNL     1     148.633 165.492 170.174  0.00  0.00    +0.000 A 
ATOM     17  C11 UNL     1     149.459 166.327 170.890  0.00  0.00    +0.000 A 
ATOM     18  C12 UNL     1     150.521 166.998 170.335  0.00  0.00    +0.000 A 
ATOM     19  C13 UNL     1     150.755 166.810 168.992  0.00  0.00    +0.000 A 
ENDBRANCH  12  15
ENDBRANCH   1  12
TORSDOF 4
ENDMDL
MODEL 5
REMARK VINA RESULT:      -5.0      1.869      2.196
REMARK  Name = ./3D_structures\o4_MMV1580800_3D.pdb
REMARK  4 active torsions:
REMARK  status: ('A' for Active; 'I' for Inactive)
REMARK    1  A    between atoms: C2_3  and  O1_4
REMARK    2  A    between atoms: O1_4  and  C3_5
REMARK    3  A    between atoms: C4_6  and  C5_7
REMARK    4  A    between atoms: C7_10  and  N2_11
REMARK                            x       y       z     vdW  Elec       q    Type
REMARK                         _______ _______ _______ _____ _____    ______ ____
ROOT
ATOM      1  C3  UNL     1     148.022 165.035 166.603  0.00  0.00    +0.000 A 
ATOM      2  C4  UNL     1     147.037 164.059 166.750  0.00  0.00    +0.000 A 
ATOM      3  C6  UNL     1     145.716 164.318 166.452  0.00  0.00    +0.000 A 
ATOM      4  C7  UNL     1     145.314 165.566 165.992  0.00  0.00    +0.000 A 
ATOM      5  C8  UNL     1     146.284 166.531 165.846  0.00  0.00    +0.000 A 
ATOM      6  C9  UNL     1     147.587 166.256 166.147  0.00  0.00    +0.000 A 
ENDROOT
BRANCH   4   7
ATOM      7  N2  UNL     1     143.944 165.814 165.689  0.00  0.00    +0.000 N 
ATOM      8  O2  UNL     1     143.011 164.827 165.748  0.00  0.00    +0.000 OA
ATOM      9  O3  UNL     1     143.585 166.959 165.364  0.00  0.00    +0.000 OA
ENDBRANCH   4   7
BRANCH   2  10
ATOM     10  C5  UNL     1     147.424 162.761 167.223  0.00  0.00    +0.000 C 
ATOM     11  N1  UNL     1     147.757 161.710 167.599  0.00  0.00    +0.000 NA
ENDBRANCH   2  10
BRANCH   1  12
ATOM     12  O1  UNL     1     149.304 164.709 166.913  0.00  0.00    +0.000 OA
BRANCH  12  15
ATOM     13 CL1  UNL     1     151.070 162.359 167.385  0.00  0.00    +0.000 Cl
ATOM     14  C1  UNL     1     151.327 163.678 166.256  0.00  0.00    +0.000 A 
ATOM     15  C2  UNL     1     150.424 164.722 166.140  0.00  0.00    +0.000 A 
ATOM     16  C10 UNL     1     150.729 165.719 165.235  0.00  0.00    +0.000 A 
ATOM     17  C11 UNL     1     151.889 165.643 164.499  0.00  0.00    +0.000 A 
ATOM     18  C12 UNL     1     152.787 164.610 164.609  0.00  0.00    +0.000 A 
ATOM     19  C13 UNL     1     152.494 163.610 165.509  0.00  0.00    +0.000 A 
ENDBRANCH  12  15
ENDBRANCH   1  12
TORSDOF 4
ENDMDL
MODEL 6
REMARK VINA RESULT:      -5.0      8.250     11.057
REMARK  Name = ./3D_structures\o4_MMV1580800_3D.pdb
REMARK  4 active torsions:
REMARK  status: ('A' for Active; 'I' for Inactive)
REMARK    1  A    between atoms: C2_3  and  O1_4
REMARK    2  A    between atoms: O1_4  and  C3_5
REMARK    3  A    between atoms: C4_6  and  C5_7
REMARK    4  A    between atoms: C7_10  and  N2_11
REMARK                            x       y       z     vdW  Elec       q    Type
REMARK                         _______ _______ _______ _____ _____    ______ ____
ROOT
ATOM      1  C3  UNL     1     154.779 158.094 168.640  0.00  0.00    +0.000 A 
ATOM      2  C4  UNL     1     155.991 157.566 169.084  0.00  0.00    +0.000 A 
ATOM      3  C6  UNL     1     156.890 156.992 168.210  0.00  0.00    +0.000 A 
ATOM      4  C7  UNL     1     156.621 156.916 166.849  0.00  0.00    +0.000 A 
ATOM      5  C8  UNL     1     155.426 157.436 166.408  0.00  0.00    +0.000 A 
ATOM      6  C9  UNL     1     154.549 158.001 167.289  0.00  0.00    +0.000 A 
ENDROOT
BRANCH   4   7
ATOM      7  N2  UNL     1     157.562 156.319 165.961  0.00  0.00    +0.000 N 
ATOM      8  O2  UNL     1     157.179 155.415 165.020  0.00  0.00    +0.000 OA
ATOM      9  O3  UNL     1     158.764 156.626 166.043  0.00  0.00    +0.000 OA
ENDBRANCH   4   7
BRANCH   2  10
ATOM     10  C5  UNL     1     156.295 157.631 170.484  0.00  0.00    +0.000 C 
ATOM     11  N1  UNL     1     156.531 157.702 171.623  0.00  0.00    +0.000 NA
ENDBRANCH   2  10
BRANCH   1  12
ATOM     12  O1  UNL     1     153.943 158.647 169.556  0.00  0.00    +0.000 OA
BRANCH  12  15
ATOM     13 CL1  UNL     1     152.625 161.145 168.616  0.00  0.00    +0.000 Cl
ATOM     14  C1  UNL     1     151.850 159.697 169.233  0.00  0.00    +0.000 A 
ATOM     15  C2  UNL     1     152.586 158.599 169.647  0.00  0.00    +0.000 A 
ATOM     16  C10 UNL     1     151.879 157.516 170.133  0.00  0.00    +0.000 A 
ATOM     17  C11 UNL     1     150.506 157.564 170.186  0.00  0.00    +0.000 A 
ATOM     18  C12 UNL     1     149.771 158.649 169.775  0.00  0.00    +0.000 A 
ATOM     19  C13 UNL     1     150.464 159.735 169.290  0.00  0.00    +0.000 A 
ENDBRANCH  12  15
ENDBRANCH   1  12
TORSDOF 4
ENDMDL
MODEL 7
REMARK VINA RESULT:      -5.0     11.785     13.699
REMARK  Name = ./3D_structures\o4_MMV1580800_3D.pdb
REMARK  4 active torsions:
REMARK  status: ('A' for Active; 'I' for Inactive)
REMARK    1  A    between atoms: C2_3  and  O1_4
REMARK    2  A    between atoms: O1_4  and  C3_5
REMARK    3  A    between atoms: C4_6  and  C5_7
REMARK    4  A    between atoms: C7_10  and  N2_11
REMARK                            x       y       z     vdW  Elec       q    Type
REMARK                         _______ _______ _______ _____ _____    ______ ____
ROOT
ATOM      1  C3  UNL     1     159.058 157.983 167.571  0.00  0.00    +0.000 A 
ATOM      2  C4  UNL     1     157.833 157.323 167.471  0.00  0.00    +0.000 A 
ATOM      3  C6  UNL     1     156.923 157.333 168.507  0.00  0.00    +0.000 A 
ATOM      4  C7  UNL     1     157.192 158.002 169.695  0.00  0.00    +0.000 A 
ATOM      5  C8  UNL     1     158.400 158.654 169.796  0.00  0.00    +0.000 A 
ATOM      6  C9  UNL     1     159.289 158.633 168.760  0.00  0.00    +0.000 A 
ENDROOT
BRANCH   4   7
ATOM      7  N2  UNL     1     156.239 158.001 170.754  0.00  0.00    +0.000 N 
ATOM      8  O2  UNL     1     156.607 157.767 172.042  0.00  0.00    +0.000 OA
ATOM      9  O3  UNL     1     155.042 158.218 170.502  0.00  0.00    +0.000 OA
ENDBRANCH   4   7
BRANCH   2  10
ATOM     10  C5  UNL     1     157.529 156.624 166.256  0.00  0.00    +0.000 C 
ATOM     11  N1  UNL     1     157.281 156.075 165.260  0.00  0.00    +0.000 NA
ENDBRANCH   2  10
BRANCH   1  12
ATOM     12  O1  UNL     1     159.905 157.933 166.511  0.00  0.00    +0.000 OA
BRANCH  12  15
ATOM     13 CL1  UNL     1     160.439 156.507 163.953  0.00  0.00    +0.000 Cl
ATOM     14  C1  UNL     1     161.557 156.774 165.279  0.00  0.00    +0.000 A 
ATOM     15  C2  UNL     1     161.175 157.452 166.425  0.00  0.00    +0.000 A 
ATOM     16  C10 UNL     1     162.126 157.593 167.417  0.00  0.00    +0.000 A 
ATOM     17  C11 UNL     1     163.385 157.070 167.237  0.00  0.00    +0.000 A 
ATOM     18  C12 UNL     1     163.769 156.398 166.102  0.00  0.00    +0.000 A 
ATOM     19  C13 UNL     1     162.829 156.250 165.107  0.00  0.00    +0.000 A 
ENDBRANCH  12  15
ENDBRANCH   1  12
TORSDOF 4
ENDMDL
MODEL 8
REMARK VINA RESULT:      -5.0      3.481      4.118
REMARK  Name = ./3D_structures\o4_MMV1580800_3D.pdb
REMARK  4 active torsions:
REMARK  status: ('A' for Active; 'I' for Inactive)
REMARK    1  A    between atoms: C2_3  and  O1_4
REMARK    2  A    between atoms: O1_4  and  C3_5
REMARK    3  A    between atoms: C4_6  and  C5_7
REMARK    4  A    between atoms: C7_10  and  N2_11
REMARK                            x       y       z     vdW  Elec       q    Type
REMARK                         _______ _______ _______ _____ _____    ______ ____
ROOT
ATOM      1  C3  UNL     1     145.202 163.048 167.362  0.00  0.00    +0.000 A 
ATOM      2  C4  UNL     1     145.691 164.109 168.122  0.00  0.00    +0.000 A 
ATOM      3  C6  UNL     1     145.797 165.381 167.600  0.00  0.00    +0.000 A 
ATOM      4  C7  UNL     1     145.419 165.654 166.291  0.00  0.00    +0.000 A 
ATOM      5  C8  UNL     1     144.937 164.608 165.538  0.00  0.00    +0.000 A 
ATOM      6  C9  UNL     1     144.840 163.356 166.073  0.00  0.00    +0.000 A 
ENDROOT
BRANCH   4   7
ATOM      7  N2  UNL     1     145.536 166.975 165.769  0.00  0.00    +0.000 N 
ATOM      8  O2  UNL     1     144.440 167.719 165.462  0.00  0.00    +0.000 OA
ATOM      9  O3  UNL     1     146.664 167.465 165.586  0.00  0.00    +0.000 OA
ENDBRANCH   4   7
BRANCH   2  10
ATOM     10  C5  UNL     1     146.088 163.856 169.477  0.00  0.00    +0.000 C 
ATOM     11  N1  UNL     1     146.421 163.669 170.577  0.00  0.00    +0.000 NA
ENDBRANCH   2  10
BRANCH   1  12
ATOM     12  O1  UNL     1     145.123 161.822 167.942  0.00  0.00    +0.000 OA
BRANCH  12  15
ATOM     13 CL1  UNL     1     143.095 160.107 166.597  0.00  0.00    +0.000 Cl
ATOM     14  C1  UNL     1     144.785 159.735 166.885  0.00  0.00    +0.000 A 
ATOM     15  C2  UNL     1     145.625 160.625 167.533  0.00  0.00    +0.000 A 
ATOM     16  C10 UNL     1     146.934 160.227 167.725  0.00  0.00    +0.000 A 
ATOM     17  C11 UNL     1     147.347 158.994 167.277  0.00  0.00    +0.000 A 
ATOM     18  C12 UNL     1     146.518 158.108 166.632  0.00  0.00    +0.000 A 
ATOM     19  C13 UNL     1     145.211 158.493 166.436  0.00  0.00    +0.000 A 
ENDBRANCH  12  15
ENDBRANCH   1  12
TORSDOF 4
ENDMDL
MODEL 9
REMARK VINA RESULT:      -5.0      9.963     12.502
REMARK  Name = ./3D_structures\o4_MMV1580800_3D.pdb
REMARK  4 active torsions:
REMARK  status: ('A' for Active; 'I' for Inactive)
REMARK    1  A    between atoms: C2_3  and  O1_4
REMARK    2  A    between atoms: O1_4  and  C3_5
REMARK    3  A    between atoms: C4_6  and  C5_7
REMARK    4  A    between atoms: C7_10  and  N2_11
REMARK                            x       y       z     vdW  Elec       q    Type
REMARK                         _______ _______ _______ _____ _____    ______ ____
ROOT
ATOM      1  C3  UNL     1     157.389 158.006 169.072  0.00  0.00    +0.000 A 
ATOM      2  C4  UNL     1     157.315 157.764 167.700  0.00  0.00    +0.000 A 
ATOM      3  C6  UNL     1     158.422 157.886 166.886  0.00  0.00    +0.000 A 
ATOM      4  C7  UNL     1     159.657 158.256 167.404  0.00  0.00    +0.000 A 
ATOM      5  C8  UNL     1     159.733 158.495 168.757  0.00  0.00    +0.000 A 
ATOM      6  C9  UNL     1     158.626 158.370 169.546  0.00  0.00    +0.000 A 
ENDROOT
BRANCH   4   7
ATOM      7  N2  UNL     1     160.789 158.377 166.547  0.00  0.00    +0.000 N 
ATOM      8  O2  UNL     1     161.806 157.475 166.579  0.00  0.00    +0.000 OA
ATOM      9  O3  UNL     1     160.856 159.327 165.748  0.00  0.00    +0.000 OA
ENDBRANCH   4   7
BRANCH   2  10
ATOM     10  C5  UNL     1     156.052 157.380 167.139  0.00  0.00    +0.000 C 
ATOM     11  N1  UNL     1     155.022 157.089 166.679  0.00  0.00    +0.000 NA
ENDBRANCH   2  10
BRANCH   1  12
ATOM     12  O1  UNL     1     156.260 157.864 169.813  0.00  0.00    +0.000 OA
BRANCH  12  15
ATOM     13 CL1  UNL     1     153.750 159.302 169.108  0.00  0.00    +0.000 Cl
ATOM     14  C1  UNL     1     154.609 159.342 170.638  0.00  0.00    +0.000 A 
ATOM     15  C2  UNL     1     155.779 158.626 170.833  0.00  0.00    +0.000 A 
ATOM     16  C10 UNL     1     156.386 158.740 172.068  0.00  0.00    +0.000 A 
ATOM     17  C11 UNL     1     155.822 159.538 173.036  0.00  0.00    +0.000 A 
ATOM     18  C12 UNL     1     154.662 160.249 172.848  0.00  0.00    +0.000 A 
ATOM     19  C13 UNL     1     154.049 160.144 171.621  0.00  0.00    +0.000 A 
ENDBRANCH  12  15
ENDBRANCH   1  12
TORSDOF 4
ENDMDL
