MODEL 1
REMARK VINA RESULT:      -5.7      0.000      0.000
REMARK  Name = ./3D_structures\o50_MMV1634401_3D.pdb
REMARK  15 active torsions:
REMARK  status: ('A' for Active; 'I' for Inactive)
REMARK    1  A    between atoms: O1_1  and  C1_2
REMARK    2  A    between atoms: O1_1  and  C9_10
REMARK    3  A    between atoms: C2_3  and  C8_9
REMARK    4  A    between atoms: C5_6  and  C7_8
REMARK    5  A    between atoms: C9_10  and  C10_11
REMARK    6  A    between atoms: C10_11  and  C11_12
REMARK    7  A    between atoms: C11_12  and  C12_13
REMARK    8  A    between atoms: C12_13  and  C13_14
REMARK    9  A    between atoms: C13_14  and  C14_15
REMARK   10  A    between atoms: C14_15  and  N1_16
REMARK   11  A    between atoms: C15_17  and  C20_25
REMARK   12  A    between atoms: C16_18  and  O2_19
REMARK   13  A    between atoms: C17_20  and  O3_21
REMARK   14  A    between atoms: C18_22  and  O4_24
REMARK   15  A    between atoms: C20_25  and  O5_26
REMARK                            x       y       z     vdW  Elec       q    Type
REMARK                         _______ _______ _______ _____ _____    ______ ____
ROOT
ATOM      1  C14 UNL     1     149.602 164.550 166.820  0.00  0.00    +0.000 C 
ENDROOT
BRANCH   1   2
ATOM      2  N1  UNL     1     148.347 165.077 167.217  0.00  0.00    +0.000 NA
ATOM      3  C15 UNL     1     147.222 164.657 166.464  0.00  0.00    +0.000 C 
ATOM      4  C16 UNL     1     146.519 163.450 167.051  0.00  0.00    +0.000 C 
ATOM      5  C17 UNL     1     146.207 163.608 168.499  0.00  0.00    +0.000 C 
ATOM      6  C18 UNL     1     147.437 164.009 169.235  0.00  0.00    +0.000 C 
ATOM      7  C19 UNL     1     148.145 165.188 168.625  0.00  0.00    +0.000 C 
BRANCH   4   8
ATOM      8  O2  UNL     1     147.378 162.360 166.899  0.00  0.00    +0.000 OA
ATOM      9  H24 UNL     1     146.885 161.505 166.851  0.00  0.00    +0.000 HD
ENDBRANCH   4   8
BRANCH   5  10
ATOM     10  O3  UNL     1     145.116 164.430 168.760  0.00  0.00    +0.000 OA
ATOM     11  H26 UNL     1     145.505 165.286 169.127  0.00  0.00    +0.000 HD
ENDBRANCH   5  10
BRANCH   6  12
ATOM     12  O4  UNL     1     148.265 162.901 169.368  0.00  0.00    +0.000 OA
ATOM     13  H30 UNL     1     149.073 162.962 168.805  0.00  0.00    +0.000 HD
ENDBRANCH   6  12
BRANCH   3  14
ATOM     14  C20 UNL     1     146.253 165.811 166.260  0.00  0.00    +0.000 C 
BRANCH  14  15
ATOM     15  O5  UNL     1     146.790 166.650 165.287  0.00  0.00    +0.000 OA
ATOM     16  H33 UNL     1     146.080 167.237 164.879  0.00  0.00    +0.000 HD
ENDBRANCH  14  15
ENDBRANCH   3  14
ENDBRANCH   1   2
BRANCH   1  17
ATOM     17  C13 UNL     1     150.410 165.540 166.012  0.00  0.00    +0.000 C 
BRANCH  17  18
ATOM     18  C12 UNL     1     151.203 164.688 165.009  0.00  0.00    +0.000 C 
BRANCH  18  19
ATOM     19  C11 UNL     1     151.511 163.368 165.638  0.00  0.00    +0.000 C 
BRANCH  19  20
ATOM     20  C10 UNL     1     152.185 162.423 164.652  0.00  0.00    +0.000 C 
BRANCH  20  21
ATOM     21  C9  UNL     1     152.134 161.021 165.192  0.00  0.00    +0.000 C 
BRANCH  21  22
ATOM     22  O1  UNL     1     152.797 160.804 166.358  0.00  0.00    +0.000 OA
BRANCH  22  23
ATOM     23  C1  UNL     1     153.464 159.712 166.818  0.00  0.00    +0.000 A 
ATOM     24  C2  UNL     1     153.178 159.351 168.149  0.00  0.00    +0.000 A 
ATOM     25  C3  UNL     1     153.796 158.273 168.687  0.00  0.00    +0.000 A 
ATOM     26  C4  UNL     1     154.701 157.515 167.969  0.00  0.00    +0.000 A 
ATOM     27  C5  UNL     1     155.003 157.837 166.670  0.00  0.00    +0.000 A 
ATOM     28  C6  UNL     1     154.367 158.946 166.117  0.00  0.00    +0.000 A 
ATOM     29  C7  UNL     1     155.975 157.038 165.869  0.00  0.00    +0.000 C 
ATOM     30  C8  UNL     1     152.212 160.139 168.958  0.00  0.00    +0.000 C 
ENDBRANCH  22  23
ENDBRANCH  21  22
ENDBRANCH  20  21
ENDBRANCH  19  20
ENDBRANCH  18  19
ENDBRANCH  17  18
ENDBRANCH   1  17
TORSDOF 13
ENDMDL
MODEL 2
REMARK VINA RESULT:      -5.7      2.003      4.067
REMARK  Name = ./3D_structures\o50_MMV1634401_3D.pdb
REMARK  15 active torsions:
REMARK  status: ('A' for Active; 'I' for Inactive)
REMARK    1  A    between atoms: O1_1  and  C1_2
REMARK    2  A    between atoms: O1_1  and  C9_10
REMARK    3  A    between atoms: C2_3  and  C8_9
REMARK    4  A    between atoms: C5_6  and  C7_8
REMARK    5  A    between atoms: C9_10  and  C10_11
REMARK    6  A    between atoms: C10_11  and  C11_12
REMARK    7  A    between atoms: C11_12  and  C12_13
REMARK    8  A    between atoms: C12_13  and  C13_14
REMARK    9  A    between atoms: C13_14  and  C14_15
REMARK   10  A    between atoms: C14_15  and  N1_16
REMARK   11  A    between atoms: C15_17  and  C20_25
REMARK   12  A    between atoms: C16_18  and  O2_19
REMARK   13  A    between atoms: C17_20  and  O3_21
REMARK   14  A    between atoms: C18_22  and  O4_24
REMARK   15  A    between atoms: C20_25  and  O5_26
REMARK                            x       y       z     vdW  Elec       q    Type
REMARK                         _______ _______ _______ _____ _____    ______ ____
ROOT
ATOM      1  C14 UNL     1     148.492 164.547 167.744  0.00  0.00    +0.000 C 
ENDROOT
BRANCH   1   2
ATOM      2  N1  UNL     1     147.173 165.022 167.536  0.00  0.00    +0.000 NA
ATOM      3  C15 UNL     1     146.525 164.582 166.354  0.00  0.00    +0.000 C 
ATOM      4  C16 UNL     1     145.683 163.337 166.555  0.00  0.00    +0.000 C 
ATOM      5  C17 UNL     1     144.746 163.450 167.707  0.00  0.00    +0.000 C 
ATOM      6  C18 UNL     1     145.496 163.876 168.921  0.00  0.00    +0.000 C 
ATOM      7  C19 UNL     1     146.353 165.092 168.702  0.00  0.00    +0.000 C 
BRANCH   4   8
ATOM      8  O2  UNL     1     146.564 162.282 166.800  0.00  0.00    +0.000 OA
ATOM      9  H24 UNL     1     146.174 161.610 167.412  0.00  0.00    +0.000 HD
ENDBRANCH   4   8
BRANCH   5  10
ATOM     10  O3  UNL     1     143.622 164.228 167.452  0.00  0.00    +0.000 OA
ATOM     11  H26 UNL     1     143.474 164.169 166.456  0.00  0.00    +0.000 HD
ENDBRANCH   5  10
BRANCH   6  12
ATOM     12  O4  UNL     1     146.221 162.794 169.407  0.00  0.00    +0.000 OA
ATOM     13  H30 UNL     1     146.379 162.104 168.720  0.00  0.00    +0.000 HD
ENDBRANCH   6  12
BRANCH   3  14
ATOM     14  C20 UNL     1     145.705 165.706 165.742  0.00  0.00    +0.000 C 
BRANCH  14  15
ATOM     15  O5  UNL     1     146.590 166.685 165.299  0.00  0.00    +0.000 OA
ATOM     16  H33 UNL     1     147.373 166.779 165.927  0.00  0.00    +0.000 HD
ENDBRANCH  14  15
ENDBRANCH   3  14
ENDBRANCH   1   2
BRANCH   1  17
ATOM     17  C13 UNL     1     149.078 165.041 169.048  0.00  0.00    +0.000 C 
BRANCH  17  18
ATOM     18  C12 UNL     1     149.754 163.812 169.675  0.00  0.00    +0.000 C 
BRANCH  18  19
ATOM     19  C11 UNL     1     149.509 162.628 168.796  0.00  0.00    +0.000 C 
BRANCH  19  20
ATOM     20  C10 UNL     1     150.596 161.574 168.963  0.00  0.00    +0.000 C 
BRANCH  20  21
ATOM     21  C9  UNL     1     151.920 162.254 169.171  0.00  0.00    +0.000 C 
BRANCH  21  22
ATOM     22  O1  UNL     1     152.718 162.357 168.075  0.00  0.00    +0.000 OA
BRANCH  22  23
ATOM     23  C1  UNL     1     152.458 162.803 166.817  0.00  0.00    +0.000 A 
ATOM     24  C2  UNL     1     152.580 161.836 165.801  0.00  0.00    +0.000 A 
ATOM     25  C3  UNL     1     152.336 162.193 164.518  0.00  0.00    +0.000 A 
ATOM     26  C4  UNL     1     151.970 163.480 164.175  0.00  0.00    +0.000 A 
ATOM     27  C5  UNL     1     151.840 164.448 165.138  0.00  0.00    +0.000 A 
ATOM     28  C6  UNL     1     152.091 164.080 166.458  0.00  0.00    +0.000 A 
ATOM     29  C7  UNL     1     151.445 165.846 164.799  0.00  0.00    +0.000 C 
ATOM     30  C8  UNL     1     152.973 160.440 166.126  0.00  0.00    +0.000 C 
ENDBRANCH  22  23
ENDBRANCH  21  22
ENDBRANCH  20  21
ENDBRANCH  19  20
ENDBRANCH  18  19
ENDBRANCH  17  18
ENDBRANCH   1  17
TORSDOF 13
ENDMDL
MODEL 3
REMARK VINA RESULT:      -5.6      1.640      3.004
REMARK  Name = ./3D_structures\o50_MMV1634401_3D.pdb
REMARK  15 active torsions:
REMARK  status: ('A' for Active; 'I' for Inactive)
REMARK    1  A    between atoms: O1_1  and  C1_2
REMARK    2  A    between atoms: O1_1  and  C9_10
REMARK    3  A    between atoms: C2_3  and  C8_9
REMARK    4  A    between atoms: C5_6  and  C7_8
REMARK    5  A    between atoms: C9_10  and  C10_11
REMARK    6  A    between atoms: C10_11  and  C11_12
REMARK    7  A    between atoms: C11_12  and  C12_13
REMARK    8  A    between atoms: C12_13  and  C13_14
REMARK    9  A    between atoms: C13_14  and  C14_15
REMARK   10  A    between atoms: C14_15  and  N1_16
REMARK   11  A    between atoms: C15_17  and  C20_25
REMARK   12  A    between atoms: C16_18  and  O2_19
REMARK   13  A    between atoms: C17_20  and  O3_21
REMARK   14  A    between atoms: C18_22  and  O4_24
REMARK   15  A    between atoms: C20_25  and  O5_26
REMARK                            x       y       z     vdW  Elec       q    Type
REMARK                         _______ _______ _______ _____ _____    ______ ____
ROOT
ATOM      1  C14 UNL     1     148.299 165.524 167.354  0.00  0.00    +0.000 C 
ENDROOT
BRANCH   1   2
ATOM      2  N1  UNL     1     147.585 164.307 167.494  0.00  0.00    +0.000 NA
ATOM      3  C15 UNL     1     148.169 163.329 168.338  0.00  0.00    +0.000 C 
ATOM      4  C16 UNL     1     147.672 163.391 169.768  0.00  0.00    +0.000 C 
ATOM      5  C17 UNL     1     146.186 163.412 169.866  0.00  0.00    +0.000 C 
ATOM      6  C18 UNL     1     145.642 164.485 168.989  0.00  0.00    +0.000 C 
ATOM      7  C19 UNL     1     146.166 164.433 167.581  0.00  0.00    +0.000 C 
BRANCH   4   8
ATOM      8  O2  UNL     1     148.170 164.571 170.324  0.00  0.00    +0.000 OA
ATOM      9  H24 UNL     1     148.376 164.468 171.286  0.00  0.00    +0.000 HD
ENDBRANCH   4   8
BRANCH   5  10
ATOM     10  O3  UNL     1     145.585 162.175 169.661  0.00  0.00    +0.000 OA
ATOM     11  H26 UNL     1     145.977 161.825 168.800  0.00  0.00    +0.000 HD
ENDBRANCH   5  10
BRANCH   6  12
ATOM     12  O4  UNL     1     145.862 165.717 169.594  0.00  0.00    +0.000 OA
ATOM     13  H30 UNL     1     145.636 165.714 170.554  0.00  0.00    +0.000 HD
ENDBRANCH   6  12
BRANCH   3  14
ATOM     14  C20 UNL     1     147.983 161.937 167.753  0.00  0.00    +0.000 C 
BRANCH  14  15
ATOM     15  O5  UNL     1     148.356 161.015 168.727  0.00  0.00    +0.000 OA
ATOM     16  H33 UNL     1     149.020 160.349 168.364  0.00  0.00    +0.000 HD
ENDBRANCH  14  15
ENDBRANCH   3  14
ENDBRANCH   1   2
BRANCH   1  17
ATOM     17  C13 UNL     1     149.187 165.529 166.131  0.00  0.00    +0.000 C 
BRANCH  17  18
ATOM     18  C12 UNL     1     150.617 165.676 166.673  0.00  0.00    +0.000 C 
BRANCH  18  19
ATOM     19  C11 UNL     1     151.296 164.347 166.604  0.00  0.00    +0.000 C 
BRANCH  19  20
ATOM     20  C10 UNL     1     152.091 164.059 167.871  0.00  0.00    +0.000 C 
BRANCH  20  21
ATOM     21  C9  UNL     1     151.702 162.710 168.407  0.00  0.00    +0.000 C 
BRANCH  21  22
ATOM     22  O1  UNL     1     151.702 161.687 167.511  0.00  0.00    +0.000 OA
BRANCH  22  23
ATOM     23  C1  UNL     1     152.545 160.631 167.359  0.00  0.00    +0.000 A 
ATOM     24  C2  UNL     1     153.071 160.465 166.064  0.00  0.00    +0.000 A 
ATOM     25  C3  UNL     1     153.922 159.440 165.824  0.00  0.00    +0.000 A 
ATOM     26  C4  UNL     1     154.290 158.549 166.814  0.00  0.00    +0.000 A 
ATOM     27  C5  UNL     1     153.798 158.680 168.087  0.00  0.00    +0.000 A 
ATOM     28  C6  UNL     1     152.923 159.736 168.334  0.00  0.00    +0.000 A 
ATOM     29  C7  UNL     1     154.179 157.735 169.177  0.00  0.00    +0.000 C 
ATOM     30  C8  UNL     1     152.700 161.399 164.969  0.00  0.00    +0.000 C 
ENDBRANCH  22  23
ENDBRANCH  21  22
ENDBRANCH  20  21
ENDBRANCH  19  20
ENDBRANCH  18  19
ENDBRANCH  17  18
ENDBRANCH   1  17
TORSDOF 13
ENDMDL
MODEL 4
REMARK VINA RESULT:      -5.6      2.462      5.014
REMARK  Name = ./3D_structures\o50_MMV1634401_3D.pdb
REMARK  15 active torsions:
REMARK  status: ('A' for Active; 'I' for Inactive)
REMARK    1  A    between atoms: O1_1  and  C1_2
REMARK    2  A    between atoms: O1_1  and  C9_10
REMARK    3  A    between atoms: C2_3  and  C8_9
REMARK    4  A    between atoms: C5_6  and  C7_8
REMARK    5  A    between atoms: C9_10  and  C10_11
REMARK    6  A    between atoms: C10_11  and  C11_12
REMARK    7  A    between atoms: C11_12  and  C12_13
REMARK    8  A    between atoms: C12_13  and  C13_14
REMARK    9  A    between atoms: C13_14  and  C14_15
REMARK   10  A    between atoms: C14_15  and  N1_16
REMARK   11  A    between atoms: C15_17  and  C20_25
REMARK   12  A    between atoms: C16_18  and  O2_19
REMARK   13  A    between atoms: C17_20  and  O3_21
REMARK   14  A    between atoms: C18_22  and  O4_24
REMARK   15  A    between atoms: C20_25  and  O5_26
REMARK                            x       y       z     vdW  Elec       q    Type
REMARK                         _______ _______ _______ _____ _____    ______ ____
ROOT
ATOM      1  C14 UNL     1     146.365 165.033 168.738  0.00  0.00    +0.000 C 
ENDROOT
BRANCH   1   2
ATOM      2  N1  UNL     1     146.523 164.039 167.740  0.00  0.00    +0.000 NA
ATOM      3  C15 UNL     1     145.682 162.904 167.844  0.00  0.00    +0.000 C 
ATOM      4  C16 UNL     1     144.401 163.024 167.043  0.00  0.00    +0.000 C 
ATOM      5  C17 UNL     1     144.638 163.427 165.628  0.00  0.00    +0.000 C 
ATOM      6  C18 UNL     1     145.493 164.645 165.592  0.00  0.00    +0.000 C 
ATOM      7  C19 UNL     1     146.745 164.527 166.416  0.00  0.00    +0.000 C 
BRANCH   4   8
ATOM      8  O2  UNL     1     143.623 164.005 167.659  0.00  0.00    +0.000 OA
ATOM      9  H24 UNL     1     142.689 163.708 167.788  0.00  0.00    +0.000 HD
ENDBRANCH   4   8
BRANCH   5  10
ATOM     10  O3  UNL     1     145.107 162.400 164.815  0.00  0.00    +0.000 OA
ATOM     11  H26 UNL     1     146.103 162.367 164.972  0.00  0.00    +0.000 HD
ENDBRANCH   5  10
BRANCH   6  12
ATOM     12  O4  UNL     1     144.724 165.747 165.947  0.00  0.00    +0.000 OA
ATOM     13  H30 UNL     1     144.154 165.575 166.734  0.00  0.00    +0.000 HD
ENDBRANCH   6  12
BRANCH   3  14
ATOM     14  C20 UNL     1     146.441 161.638 167.478  0.00  0.00    +0.000 C 
BRANCH  14  15
ATOM     15  O5  UNL     1     147.109 161.199 168.617  0.00  0.00    +0.000 OA
ATOM     16  H33 UNL     1     146.588 160.477 169.090  0.00  0.00    +0.000 HD
ENDBRANCH  14  15
ENDBRANCH   3  14
ENDBRANCH   1   2
BRANCH   1  17
ATOM     17  C13 UNL     1     146.763 164.535 170.109  0.00  0.00    +0.000 C 
BRANCH  17  18
ATOM     18  C12 UNL     1     148.277 164.288 170.023  0.00  0.00    +0.000 C 
BRANCH  18  19
ATOM     19  C11 UNL     1     148.983 165.603 170.086  0.00  0.00    +0.000 C 
BRANCH  19  20
ATOM     20  C10 UNL     1     149.986 165.754 168.950  0.00  0.00    +0.000 C 
BRANCH  20  21
ATOM     21  C9  UNL     1     150.138 164.436 168.243  0.00  0.00    +0.000 C 
BRANCH  21  22
ATOM     22  O1  UNL     1     150.296 164.495 166.894  0.00  0.00    +0.000 OA
BRANCH  22  23
ATOM     23  C1  UNL     1     151.132 163.818 166.060  0.00  0.00    +0.000 A 
ATOM     24  C2  UNL     1     151.601 164.553 164.956  0.00  0.00    +0.000 A 
ATOM     25  C3  UNL     1     152.440 163.958 164.076  0.00  0.00    +0.000 A 
ATOM     26  C4  UNL     1     152.849 162.647 164.229  0.00  0.00    +0.000 A 
ATOM     27  C5  UNL     1     152.412 161.901 165.293  0.00  0.00    +0.000 A 
ATOM     28  C6  UNL     1     151.550 162.514 166.198  0.00  0.00    +0.000 A 
ATOM     29  C7  UNL     1     152.837 160.484 165.486  0.00  0.00    +0.000 C 
ATOM     30  C8  UNL     1     151.186 165.966 164.752  0.00  0.00    +0.000 C 
ENDBRANCH  22  23
ENDBRANCH  21  22
ENDBRANCH  20  21
ENDBRANCH  19  20
ENDBRANCH  18  19
ENDBRANCH  17  18
ENDBRANCH   1  17
TORSDOF 13
ENDMDL
MODEL 5
REMARK VINA RESULT:      -5.5      1.367      1.762
REMARK  Name = ./3D_structures\o50_MMV1634401_3D.pdb
REMARK  15 active torsions:
REMARK  status: ('A' for Active; 'I' for Inactive)
REMARK    1  A    between atoms: O1_1  and  C1_2
REMARK    2  A    between atoms: O1_1  and  C9_10
REMARK    3  A    between atoms: C2_3  and  C8_9
REMARK    4  A    between atoms: C5_6  and  C7_8
REMARK    5  A    between atoms: C9_10  and  C10_11
REMARK    6  A    between atoms: C10_11  and  C11_12
REMARK    7  A    between atoms: C11_12  and  C12_13
REMARK    8  A    between atoms: C12_13  and  C13_14
REMARK    9  A    between atoms: C13_14  and  C14_15
REMARK   10  A    between atoms: C14_15  and  N1_16
REMARK   11  A    between atoms: C15_17  and  C20_25
REMARK   12  A    between atoms: C16_18  and  O2_19
REMARK   13  A    between atoms: C17_20  and  O3_21
REMARK   14  A    between atoms: C18_22  and  O4_24
REMARK   15  A    between atoms: C20_25  and  O5_26
REMARK                            x       y       z     vdW  Elec       q    Type
REMARK                         _______ _______ _______ _____ _____    ______ ____
ROOT
ATOM      1  C14 UNL     1     149.645 163.986 166.720  0.00  0.00    +0.000 C 
ENDROOT
BRANCH   1   2
ATOM      2  N1  UNL     1     148.597 164.800 167.221  0.00  0.00    +0.000 NA
ATOM      3  C15 UNL     1     147.346 164.688 166.565  0.00  0.00    +0.000 C 
ATOM      4  C16 UNL     1     146.414 163.680 167.208  0.00  0.00    +0.000 C 
ATOM      5  C17 UNL     1     146.270 163.880 168.678  0.00  0.00    +0.000 C 
ATOM      6  C18 UNL     1     147.617 163.948 169.308  0.00  0.00    +0.000 C 
ATOM      7  C19 UNL     1     148.543 164.927 168.642  0.00  0.00    +0.000 C 
BRANCH   4   8
ATOM      8  O2  UNL     1     146.961 162.415 166.984  0.00  0.00    +0.000 OA
ATOM      9  H24 UNL     1     146.573 161.983 166.184  0.00  0.00    +0.000 HD
ENDBRANCH   4   8
BRANCH   5  10
ATOM     10  O3  UNL     1     145.442 164.941 169.029  0.00  0.00    +0.000 OA
ATOM     11  H26 UNL     1     144.713 164.537 169.598  0.00  0.00    +0.000 HD
ENDBRANCH   5  10
BRANCH   6  12
ATOM     12  O4  UNL     1     148.151 162.667 169.371  0.00  0.00    +0.000 OA
ATOM     13  H30 UNL     1     148.909 162.541 168.752  0.00  0.00    +0.000 HD
ENDBRANCH   6  12
BRANCH   3  14
ATOM     14  C20 UNL     1     146.681 166.050 166.443  0.00  0.00    +0.000 C 
BRANCH  14  15
ATOM     15  O5  UNL     1     146.563 166.345 165.087  0.00  0.00    +0.000 OA
ATOM     16  H33 UNL     1     146.894 167.275 164.886  0.00  0.00    +0.000 HD
ENDBRANCH  14  15
ENDBRANCH   3  14
ENDBRANCH   1   2
BRANCH   1  17
ATOM     17  C13 UNL     1     150.953 164.738 166.615  0.00  0.00    +0.000 C 
BRANCH  17  18
ATOM     18  C12 UNL     1     150.846 165.550 165.315  0.00  0.00    +0.000 C 
BRANCH  18  19
ATOM     19  C11 UNL     1     152.073 165.311 164.497  0.00  0.00    +0.000 C 
BRANCH  19  20
ATOM     20  C10 UNL     1     152.190 163.851 164.078  0.00  0.00    +0.000 C 
BRANCH  20  21
ATOM     21  C9  UNL     1     153.635 163.437 164.118  0.00  0.00    +0.000 C 
BRANCH  21  22
ATOM     22  O1  UNL     1     154.030 162.746 165.219  0.00  0.00    +0.000 OA
BRANCH  22  23
ATOM     23  C1  UNL     1     154.439 161.457 165.368  0.00  0.00    +0.000 A 
ATOM     24  C2  UNL     1     153.550 160.623 166.071  0.00  0.00    +0.000 A 
ATOM     25  C3  UNL     1     153.877 159.323 166.263  0.00  0.00    +0.000 A 
ATOM     26  C4  UNL     1     155.060 158.790 165.789  0.00  0.00    +0.000 A 
ATOM     27  C5  UNL     1     155.950 159.573 165.100  0.00  0.00    +0.000 A 
ATOM     28  C6  UNL     1     155.612 160.910 164.902  0.00  0.00    +0.000 A 
ATOM     29  C7  UNL     1     157.234 159.025 164.575  0.00  0.00    +0.000 C 
ATOM     30  C8  UNL     1     152.266 161.156 166.599  0.00  0.00    +0.000 C 
ENDBRANCH  22  23
ENDBRANCH  21  22
ENDBRANCH  20  21
ENDBRANCH  19  20
ENDBRANCH  18  19
ENDBRANCH  17  18
ENDBRANCH   1  17
TORSDOF 13
ENDMDL
MODEL 6
REMARK VINA RESULT:      -5.5      2.319      4.045
REMARK  Name = ./3D_structures\o50_MMV1634401_3D.pdb
REMARK  15 active torsions:
REMARK  status: ('A' for Active; 'I' for Inactive)
REMARK    1  A    between atoms: O1_1  and  C1_2
REMARK    2  A    between atoms: O1_1  and  C9_10
REMARK    3  A    between atoms: C2_3  and  C8_9
REMARK    4  A    between atoms: C5_6  and  C7_8
REMARK    5  A    between atoms: C9_10  and  C10_11
REMARK    6  A    between atoms: C10_11  and  C11_12
REMARK    7  A    between atoms: C11_12  and  C12_13
REMARK    8  A    between atoms: C12_13  and  C13_14
REMARK    9  A    between atoms: C13_14  and  C14_15
REMARK   10  A    between atoms: C14_15  and  N1_16
REMARK   11  A    between atoms: C15_17  and  C20_25
REMARK   12  A    between atoms: C16_18  and  O2_19
REMARK   13  A    between atoms: C17_20  and  O3_21
REMARK   14  A    between atoms: C18_22  and  O4_24
REMARK   15  A    between atoms: C20_25  and  O5_26
REMARK                            x       y       z     vdW  Elec       q    Type
REMARK                         _______ _______ _______ _____ _____    ______ ____
ROOT
ATOM      1  C14 UNL     1     148.034 163.717 168.516  0.00  0.00    +0.000 C 
ENDROOT
BRANCH   1   2
ATOM      2  N1  UNL     1     147.071 164.644 168.041  0.00  0.00    +0.000 NA
ATOM      3  C15 UNL     1     146.916 164.725 166.634  0.00  0.00    +0.000 C 
ATOM      4  C16 UNL     1     145.821 163.827 166.094  0.00  0.00    +0.000 C 
ATOM      5  C17 UNL     1     144.529 163.988 166.818  0.00  0.00    +0.000 C 
ATOM      6  C18 UNL     1     144.757 163.852 168.283  0.00  0.00    +0.000 C 
ATOM      7  C19 UNL     1     145.867 164.723 168.803  0.00  0.00    +0.000 C 
BRANCH   4   8
ATOM      8  O2  UNL     1     146.257 162.510 166.251  0.00  0.00    +0.000 OA
ATOM      9  H24 UNL     1     146.800 162.395 167.069  0.00  0.00    +0.000 HD
ENDBRANCH   4   8
BRANCH   5  10
ATOM     10  O3  UNL     1     143.824 165.136 166.474  0.00  0.00    +0.000 OA
ATOM     11  H26 UNL     1     143.847 165.174 165.466  0.00  0.00    +0.000 HD
ENDBRANCH   5  10
BRANCH   6  12
ATOM     12  O4  UNL     1     144.947 162.509 168.588  0.00  0.00    +0.000 OA
ATOM     13  H30 UNL     1     144.709 161.913 167.839  0.00  0.00    +0.000 HD
ENDBRANCH   6  12
BRANCH   3  14
ATOM     14  C20 UNL     1     146.707 166.167 166.200  0.00  0.00    +0.000 C 
BRANCH  14  15
ATOM     15  O5  UNL     1     146.337 166.157 164.858  0.00  0.00    +0.000 OA
ATOM     16  H33 UNL     1     147.043 165.718 164.289  0.00  0.00    +0.000 HD
ENDBRANCH  14  15
ENDBRANCH   3  14
ENDBRANCH   1   2
BRANCH   1  17
ATOM     17  C13 UNL     1     149.388 163.921 167.875  0.00  0.00    +0.000 C 
BRANCH  17  18
ATOM     18  C12 UNL     1     150.353 163.046 168.690  0.00  0.00    +0.000 C 
BRANCH  18  19
ATOM     19  C11 UNL     1     151.283 163.935 169.450  0.00  0.00    +0.000 C 
BRANCH  19  20
ATOM     20  C10 UNL     1     151.490 165.266 168.738  0.00  0.00    +0.000 C 
BRANCH  20  21
ATOM     21  C9  UNL     1     152.928 165.386 168.317  0.00  0.00    +0.000 C 
BRANCH  21  22
ATOM     22  O1  UNL     1     153.180 165.215 166.992  0.00  0.00    +0.000 OA
BRANCH  22  23
ATOM     23  C1  UNL     1     152.916 164.173 166.158  0.00  0.00    +0.000 A 
ATOM     24  C2  UNL     1     152.224 164.508 164.979  0.00  0.00    +0.000 A 
ATOM     25  C3  UNL     1     151.923 163.532 164.091  0.00  0.00    +0.000 A 
ATOM     26  C4  UNL     1     152.274 162.213 164.307  0.00  0.00    +0.000 A 
ATOM     27  C5  UNL     1     152.949 161.850 165.445  0.00  0.00    +0.000 A 
ATOM     28  C6  UNL     1     153.260 162.855 166.358  0.00  0.00    +0.000 A 
ATOM     29  C7  UNL     1     153.344 160.435 165.706  0.00  0.00    +0.000 C 
ATOM     30  C8  UNL     1     151.826 165.914 164.707  0.00  0.00    +0.000 C 
ENDBRANCH  22  23
ENDBRANCH  21  22
ENDBRANCH  20  21
ENDBRANCH  19  20
ENDBRANCH  18  19
ENDBRANCH  17  18
ENDBRANCH   1  17
TORSDOF 13
ENDMDL
MODEL 7
REMARK VINA RESULT:      -5.5      2.001      3.169
REMARK  Name = ./3D_structures\o50_MMV1634401_3D.pdb
REMARK  15 active torsions:
REMARK  status: ('A' for Active; 'I' for Inactive)
REMARK    1  A    between atoms: O1_1  and  C1_2
REMARK    2  A    between atoms: O1_1  and  C9_10
REMARK    3  A    between atoms: C2_3  and  C8_9
REMARK    4  A    between atoms: C5_6  and  C7_8
REMARK    5  A    between atoms: C9_10  and  C10_11
REMARK    6  A    between atoms: C10_11  and  C11_12
REMARK    7  A    between atoms: C11_12  and  C12_13
REMARK    8  A    between atoms: C12_13  and  C13_14
REMARK    9  A    between atoms: C13_14  and  C14_15
REMARK   10  A    between atoms: C14_15  and  N1_16
REMARK   11  A    between atoms: C15_17  and  C20_25
REMARK   12  A    between atoms: C16_18  and  O2_19
REMARK   13  A    between atoms: C17_20  and  O3_21
REMARK   14  A    between atoms: C18_22  and  O4_24
REMARK   15  A    between atoms: C20_25  and  O5_26
REMARK                            x       y       z     vdW  Elec       q    Type
REMARK                         _______ _______ _______ _____ _____    ______ ____
ROOT
ATOM      1  C14 UNL     1     148.566 164.395 167.046  0.00  0.00    +0.000 C 
ENDROOT
BRANCH   1   2
ATOM      2  N1  UNL     1     147.613 163.713 167.844  0.00  0.00    +0.000 NA
ATOM      3  C15 UNL     1     146.783 164.520 168.661  0.00  0.00    +0.000 C 
ATOM      4  C16 UNL     1     145.467 164.890 168.006  0.00  0.00    +0.000 C 
ATOM      5  C17 UNL     1     144.744 163.713 167.450  0.00  0.00    +0.000 C 
ATOM      6  C18 UNL     1     145.659 162.933 166.572  0.00  0.00    +0.000 C 
ATOM      7  C19 UNL     1     146.974 162.599 167.220  0.00  0.00    +0.000 C 
BRANCH   4   8
ATOM      8  O2  UNL     1     145.762 165.765 166.959  0.00  0.00    +0.000 OA
ATOM      9  H24 UNL     1     144.983 165.909 166.367  0.00  0.00    +0.000 HD
ENDBRANCH   4   8
BRANCH   5  10
ATOM     10  O3  UNL     1     144.103 162.935 168.408  0.00  0.00    +0.000 OA
ATOM     11  H26 UNL     1     143.573 163.583 168.971  0.00  0.00    +0.000 HD
ENDBRANCH   5  10
BRANCH   6  12
ATOM     12  O4  UNL     1     145.815 163.610 165.368  0.00  0.00    +0.000 OA
ATOM     13  H30 UNL     1     145.696 163.022 164.585  0.00  0.00    +0.000 HD
ENDBRANCH   6  12
BRANCH   3  14
ATOM     14  C20 UNL     1     146.556 163.861 170.012  0.00  0.00    +0.000 C 
BRANCH  14  15
ATOM     15  O5  UNL     1     146.286 164.867 170.935  0.00  0.00    +0.000 OA
ATOM     16  H33 UNL     1     145.365 164.762 171.331  0.00  0.00    +0.000 HD
ENDBRANCH  14  15
ENDBRANCH   3  14
ENDBRANCH   1   2
BRANCH   1  17
ATOM     17  C13 UNL     1     149.234 165.526 167.794  0.00  0.00    +0.000 C 
BRANCH  17  18
ATOM     18  C12 UNL     1     150.493 165.858 166.980  0.00  0.00    +0.000 C 
BRANCH  18  19
ATOM     19  C11 UNL     1     150.395 165.187 165.648  0.00  0.00    +0.000 C 
BRANCH  19  20
ATOM     20  C10 UNL     1     151.496 165.653 164.705  0.00  0.00    +0.000 C 
BRANCH  20  21
ATOM     21  C9  UNL     1     152.312 164.468 164.268  0.00  0.00    +0.000 C 
BRANCH  21  22
ATOM     22  O1  UNL     1     151.987 163.277 164.835  0.00  0.00    +0.000 OA
BRANCH  22  23
ATOM     23  C1  UNL     1     152.763 162.226 165.216  0.00  0.00    +0.000 A 
ATOM     24  C2  UNL     1     152.190 161.377 166.182  0.00  0.00    +0.000 A 
ATOM     25  C3  UNL     1     152.892 160.304 166.616  0.00  0.00    +0.000 A 
ATOM     26  C4  UNL     1     154.157 160.017 166.141  0.00  0.00    +0.000 A 
ATOM     27  C5  UNL     1     154.746 160.822 165.200  0.00  0.00    +0.000 A 
ATOM     28  C6  UNL     1     154.023 161.925 164.753  0.00  0.00    +0.000 A 
ATOM     29  C7  UNL     1     156.110 160.538 164.666  0.00  0.00    +0.000 C 
ATOM     30  C8  UNL     1     150.832 161.649 166.722  0.00  0.00    +0.000 C 
ENDBRANCH  22  23
ENDBRANCH  21  22
ENDBRANCH  20  21
ENDBRANCH  19  20
ENDBRANCH  18  19
ENDBRANCH  17  18
ENDBRANCH   1  17
TORSDOF 13
ENDMDL
MODEL 8
REMARK VINA RESULT:      -5.5      2.075      2.586
REMARK  Name = ./3D_structures\o50_MMV1634401_3D.pdb
REMARK  15 active torsions:
REMARK  status: ('A' for Active; 'I' for Inactive)
REMARK    1  A    between atoms: O1_1  and  C1_2
REMARK    2  A    between atoms: O1_1  and  C9_10
REMARK    3  A    between atoms: C2_3  and  C8_9
REMARK    4  A    between atoms: C5_6  and  C7_8
REMARK    5  A    between atoms: C9_10  and  C10_11
REMARK    6  A    between atoms: C10_11  and  C11_12
REMARK    7  A    between atoms: C11_12  and  C12_13
REMARK    8  A    between atoms: C12_13  and  C13_14
REMARK    9  A    between atoms: C13_14  and  C14_15
REMARK   10  A    between atoms: C14_15  and  N1_16
REMARK   11  A    between atoms: C15_17  and  C20_25
REMARK   12  A    between atoms: C16_18  and  O2_19
REMARK   13  A    between atoms: C17_20  and  O3_21
REMARK   14  A    between atoms: C18_22  and  O4_24
REMARK   15  A    between atoms: C20_25  and  O5_26
REMARK                            x       y       z     vdW  Elec       q    Type
REMARK                         _______ _______ _______ _____ _____    ______ ____
ROOT
ATOM      1  C14 UNL     1     147.558 163.444 167.533  0.00  0.00    +0.000 C 
ENDROOT
BRANCH   1   2
ATOM      2  N1  UNL     1     146.513 164.362 167.256  0.00  0.00    +0.000 NA
ATOM      3  C15 UNL     1     146.111 164.467 165.901  0.00  0.00    +0.000 C 
ATOM      4  C16 UNL     1     144.950 163.561 165.544  0.00  0.00    +0.000 C 
ATOM      5  C17 UNL     1     143.805 163.685 166.488  0.00  0.00    +0.000 C 
ATOM      6  C18 UNL     1     144.290 163.525 167.886  0.00  0.00    +0.000 C 
ATOM      7  C19 UNL     1     145.462 164.406 168.220  0.00  0.00    +0.000 C 
BRANCH   4   8
ATOM      8  O2  UNL     1     145.425 162.249 165.592  0.00  0.00    +0.000 OA
ATOM      9  H24 UNL     1     144.688 161.590 165.624  0.00  0.00    +0.000 HD
ENDBRANCH   4   8
BRANCH   5  10
ATOM     10  O3  UNL     1     143.033 164.827 166.298  0.00  0.00    +0.000 OA
ATOM     11  H26 UNL     1     142.180 164.506 165.865  0.00  0.00    +0.000 HD
ENDBRANCH   5  10
BRANCH   6  12
ATOM     12  O4  UNL     1     144.549 162.180 168.123  0.00  0.00    +0.000 OA
ATOM     13  H30 UNL     1     145.126 162.039 168.911  0.00  0.00    +0.000 HD
ENDBRANCH   6  12
BRANCH   3  14
ATOM     14  C20 UNL     1     145.808 165.913 165.542  0.00  0.00    +0.000 C 
BRANCH  14  15
ATOM     15  O5  UNL     1     147.006 166.520 165.177  0.00  0.00    +0.000 OA
ATOM     16  H33 UNL     1     146.844 167.318 164.582  0.00  0.00    +0.000 HD
ENDBRANCH  14  15
ENDBRANCH   3  14
ENDBRANCH   1   2
BRANCH   1  17
ATOM     17  C13 UNL     1     148.046 163.546 168.960  0.00  0.00    +0.000 C 
BRANCH  17  18
ATOM     18  C12 UNL     1     149.434 162.889 168.958  0.00  0.00    +0.000 C 
BRANCH  18  19
ATOM     19  C11 UNL     1     149.320 161.527 168.353  0.00  0.00    +0.000 C 
BRANCH  19  20
ATOM     20  C10 UNL     1     150.398 161.291 167.302  0.00  0.00    +0.000 C 
BRANCH  20  21
ATOM     21  C9  UNL     1     151.679 161.937 167.750  0.00  0.00    +0.000 C 
BRANCH  21  22
ATOM     22  O1  UNL     1     152.449 161.212 168.603  0.00  0.00    +0.000 OA
BRANCH  22  23
ATOM     23  C1  UNL     1     153.025 159.987 168.467  0.00  0.00    +0.000 A 
ATOM     24  C2  UNL     1     152.789 159.092 169.528  0.00  0.00    +0.000 A 
ATOM     25  C3  UNL     1     153.323 157.849 169.473  0.00  0.00    +0.000 A 
ATOM     26  C4  UNL     1     154.094 157.431 168.406  0.00  0.00    +0.000 A 
ATOM     27  C5  UNL     1     154.345 158.276 167.355  0.00  0.00    +0.000 A 
ATOM     28  C6  UNL     1     153.795 159.554 167.412  0.00  0.00    +0.000 A 
ATOM     29  C7  UNL     1     155.173 157.853 166.188  0.00  0.00    +0.000 C 
ATOM     30  C8  UNL     1     151.966 159.500 170.696  0.00  0.00    +0.000 C 
ENDBRANCH  22  23
ENDBRANCH  21  22
ENDBRANCH  20  21
ENDBRANCH  19  20
ENDBRANCH  18  19
ENDBRANCH  17  18
ENDBRANCH   1  17
TORSDOF 13
ENDMDL
MODEL 9
REMARK VINA RESULT:      -5.5      0.774      2.013
REMARK  Name = ./3D_structures\o50_MMV1634401_3D.pdb
REMARK  15 active torsions:
REMARK  status: ('A' for Active; 'I' for Inactive)
REMARK    1  A    between atoms: O1_1  and  C1_2
REMARK    2  A    between atoms: O1_1  and  C9_10
REMARK    3  A    between atoms: C2_3  and  C8_9
REMARK    4  A    between atoms: C5_6  and  C7_8
REMARK    5  A    between atoms: C9_10  and  C10_11
REMARK    6  A    between atoms: C10_11  and  C11_12
REMARK    7  A    between atoms: C11_12  and  C12_13
REMARK    8  A    between atoms: C12_13  and  C13_14
REMARK    9  A    between atoms: C13_14  and  C14_15
REMARK   10  A    between atoms: C14_15  and  N1_16
REMARK   11  A    between atoms: C15_17  and  C20_25
REMARK   12  A    between atoms: C16_18  and  O2_19
REMARK   13  A    between atoms: C17_20  and  O3_21
REMARK   14  A    between atoms: C18_22  and  O4_24
REMARK   15  A    between atoms: C20_25  and  O5_26
REMARK                            x       y       z     vdW  Elec       q    Type
REMARK                         _______ _______ _______ _____ _____    ______ ____
ROOT
ATOM      1  C14 UNL     1     149.978 164.315 167.055  0.00  0.00    +0.000 C 
ENDROOT
BRANCH   1   2
ATOM      2  N1  UNL     1     148.788 164.988 167.431  0.00  0.00    +0.000 NA
ATOM      3  C15 UNL     1     147.643 164.735 166.634  0.00  0.00    +0.000 C 
ATOM      4  C16 UNL     1     146.774 163.612 167.165  0.00  0.00    +0.000 C 
ATOM      5  C17 UNL     1     146.438 163.772 168.607  0.00  0.00    +0.000 C 
ATOM      6  C18 UNL     1     147.684 163.994 169.389  0.00  0.00    +0.000 C 
ATOM      7  C19 UNL     1     148.555 165.088 168.835  0.00  0.00    +0.000 C 
BRANCH   4   8
ATOM      8  O2  UNL     1     147.493 162.426 167.005  0.00  0.00    +0.000 OA
ATOM      9  H24 UNL     1     147.428 162.077 166.083  0.00  0.00    +0.000 HD
ENDBRANCH   4   8
BRANCH   5  10
ATOM     10  O3  UNL     1     145.452 164.720 168.860  0.00  0.00    +0.000 OA
ATOM     11  H26 UNL     1     144.624 164.192 169.094  0.00  0.00    +0.000 HD
ENDBRANCH   5  10
BRANCH   6  12
ATOM     12  O4  UNL     1     148.361 162.787 169.514  0.00  0.00    +0.000 OA
ATOM     13  H30 UNL     1     148.773 162.673 170.403  0.00  0.00    +0.000 HD
ENDBRANCH   6  12
BRANCH   3  14
ATOM     14  C20 UNL     1     146.835 166.007 166.435  0.00  0.00    +0.000 C 
BRANCH  14  15
ATOM     15  O5  UNL     1     147.703 166.994 165.974  0.00  0.00    +0.000 OA
ATOM     16  H33 UNL     1     147.958 166.834 165.012  0.00  0.00    +0.000 HD
ENDBRANCH  14  15
ENDBRANCH   3  14
ENDBRANCH   1   2
BRANCH   1  17
ATOM     17  C13 UNL     1     150.560 164.858 165.769  0.00  0.00    +0.000 C 
BRANCH  17  18
ATOM     18  C12 UNL     1     151.672 163.870 165.384  0.00  0.00    +0.000 C 
BRANCH  18  19
ATOM     19  C11 UNL     1     151.413 162.565 166.066  0.00  0.00    +0.000 C 
BRANCH  19  20
ATOM     20  C10 UNL     1     151.944 161.394 165.250  0.00  0.00    +0.000 C 
BRANCH  20  21
ATOM     21  C9  UNL     1     153.426 161.269 165.466  0.00  0.00    +0.000 C 
BRANCH  21  22
ATOM     22  O1  UNL     1     153.874 160.048 165.858  0.00  0.00    +0.000 OA
BRANCH  22  23
ATOM     23  C1  UNL     1     153.724 159.374 167.030  0.00  0.00    +0.000 A 
ATOM     24  C2  UNL     1     154.474 158.187 167.140  0.00  0.00    +0.000 A 
ATOM     25  C3  UNL     1     154.386 157.455 168.275  0.00  0.00    +0.000 A 
ATOM     26  C4  UNL     1     153.580 157.836 169.331  0.00  0.00    +0.000 A 
ATOM     27  C5  UNL     1     152.836 158.986 169.259  0.00  0.00    +0.000 A 
ATOM     28  C6  UNL     1     152.928 159.740 168.091  0.00  0.00    +0.000 A 
ATOM     29  C7  UNL     1     151.959 159.425 170.382  0.00  0.00    +0.000 C 
ATOM     30  C8  UNL     1     155.352 157.739 166.028  0.00  0.00    +0.000 C 
ENDBRANCH  22  23
ENDBRANCH  21  22
ENDBRANCH  20  21
ENDBRANCH  19  20
ENDBRANCH  18  19
ENDBRANCH  17  18
ENDBRANCH   1  17
TORSDOF 13
ENDMDL
