MODEL 1
REMARK VINA RESULT:      -5.6      0.000      0.000
REMARK  Name = ./3D_structures\o55_MMV1593511_3D.pdb
REMARK  12 active torsions:
REMARK  status: ('A' for Active; 'I' for Inactive)
REMARK    1  A    between atoms: C1_1  and  C2_2
REMARK    2  A    between atoms: C2_2  and  C3_3
REMARK    3  A    between atoms: C3_3  and  C4_4
REMARK    4  A    between atoms: C3_3  and  C6_6
REMARK    5  A    between atoms: C4_4  and  C5_5
REMARK    6  A    between atoms: C6_6  and  N1_7
REMARK    7  A    between atoms: C6_6  and  C9_11
REMARK    8  A    between atoms: C7_8  and  C8_10
REMARK    9  A    between atoms: C10_12  and  O2_13
REMARK   10  A    between atoms: C11_14  and  C15_21
REMARK   11  A    between atoms: C13_16  and  N2_17
REMARK   12  A    between atoms: C15_21  and  O4_23
REMARK                            x       y       z     vdW  Elec       q    Type
REMARK                         _______ _______ _______ _____ _____    ______ ____
ROOT
ATOM      1  C9  UNL     1     147.155 165.175 167.527  0.00  0.00    +0.000 C 
ATOM      2  C10 UNL     1     145.973 164.793 166.654  0.00  0.00    +0.000 C 
ATOM      3  C11 UNL     1     145.968 165.801 165.511  0.00  0.00    +0.000 C 
ATOM      4  C12 UNL     1     147.180 166.703 165.767  0.00  0.00    +0.000 C 
ATOM      5  C13 UNL     1     148.089 165.732 166.497  0.00  0.00    +0.000 C 
ENDROOT
BRANCH   5   6
ATOM      6  N2  UNL     1     149.292 166.296 166.982  0.00  0.00    +0.000 N 
ATOM      7  C14 UNL     1     150.562 166.019 166.421  0.00  0.00    +0.000 C 
ATOM      8  N3  UNL     1     150.606 165.245 165.395  0.00  0.00    +0.000 NA
ATOM      9  N4  UNL     1     151.768 166.583 166.979  0.00  0.00    +0.000 N 
ATOM     10  H24 UNL     1     149.267 166.949 167.792  0.00  0.00    +0.000 HD
ATOM     11  H25 UNL     1     151.542 165.044 164.984  0.00  0.00    +0.000 HD
ATOM     12  H26 UNL     1     151.817 166.796 168.002  0.00  0.00    +0.000 HD
ATOM     13  H27 UNL     1     152.599 166.791 166.408  0.00  0.00    +0.000 HD
ENDBRANCH   5   6
BRANCH   2  14
ATOM     14  O2  UNL     1     146.263 163.541 166.099  0.00  0.00    +0.000 OA
ATOM     15  H19 UNL     1     147.247 163.346 166.154  0.00  0.00    +0.000 HD
ENDBRANCH   2  14
BRANCH   3  16
ATOM     16  C15 UNL     1     144.711 166.550 165.594  0.00  0.00    +0.000 C 
ATOM     17  O3  UNL     1     143.634 165.930 165.762  0.00  0.00    +0.000 OA
BRANCH  16  18
ATOM     18  O4  UNL     1     144.661 167.929 165.493  0.00  0.00    +0.000 OA
ATOM     19  H28 UNL     1     143.904 168.410 164.992  0.00  0.00    +0.000 HD
ENDBRANCH  16  18
ENDBRANCH   3  16
BRANCH   1  20
ATOM     20  C6  UNL     1     147.684 163.966 168.246  0.00  0.00    +0.000 C 
BRANCH  20  21
ATOM     21  N1  UNL     1     148.994 163.577 167.838  0.00  0.00    +0.000 N 
ATOM     22  C7  UNL     1     149.267 162.275 167.339  0.00  0.00    +0.000 C 
ATOM     23  O1  UNL     1     148.360 161.396 167.234  0.00  0.00    +0.000 OA
ATOM     24  C8  UNL     1     150.638 161.877 166.916  0.00  0.00    +0.000 C 
ATOM     25  H13 UNL     1     149.805 164.236 167.889  0.00  0.00    +0.000 HD
ENDBRANCH  20  21
BRANCH  20  26
ATOM     26  C3  UNL     1     147.590 164.139 169.731  0.00  0.00    +0.000 C 
BRANCH  26  28
ATOM     27  C1  UNL     1     149.213 165.831 170.641  0.00  0.00    +0.000 C 
ATOM     28  C2  UNL     1     147.829 165.551 170.190  0.00  0.00    +0.000 C 
ENDBRANCH  26  28
BRANCH  26  29
ATOM     29  C4  UNL     1     146.217 163.746 170.270  0.00  0.00    +0.000 C 
ATOM     30  C5  UNL     1     145.750 162.529 169.489  0.00  0.00    +0.000 C 
ENDBRANCH  26  29
ENDBRANCH  20  26
ENDBRANCH   1  20
TORSDOF 9
ENDMDL
MODEL 2
REMARK VINA RESULT:      -5.0      2.889      4.321
REMARK  Name = ./3D_structures\o55_MMV1593511_3D.pdb
REMARK  12 active torsions:
REMARK  status: ('A' for Active; 'I' for Inactive)
REMARK    1  A    between atoms: C1_1  and  C2_2
REMARK    2  A    between atoms: C2_2  and  C3_3
REMARK    3  A    between atoms: C3_3  and  C4_4
REMARK    4  A    between atoms: C3_3  and  C6_6
REMARK    5  A    between atoms: C4_4  and  C5_5
REMARK    6  A    between atoms: C6_6  and  N1_7
REMARK    7  A    between atoms: C6_6  and  C9_11
REMARK    8  A    between atoms: C7_8  and  C8_10
REMARK    9  A    between atoms: C10_12  and  O2_13
REMARK   10  A    between atoms: C11_14  and  C15_21
REMARK   11  A    between atoms: C13_16  and  N2_17
REMARK   12  A    between atoms: C15_21  and  O4_23
REMARK                            x       y       z     vdW  Elec       q    Type
REMARK                         _______ _______ _______ _____ _____    ______ ____
ROOT
ATOM      1  C9  UNL     1     146.601 163.978 166.546  0.00  0.00    +0.000 C 
ATOM      2  C10 UNL     1     146.227 165.299 167.193  0.00  0.00    +0.000 C 
ATOM      3  C11 UNL     1     145.075 165.849 166.362  0.00  0.00    +0.000 C 
ATOM      4  C12 UNL     1     144.816 164.791 165.286  0.00  0.00    +0.000 C 
ATOM      5  C13 UNL     1     145.267 163.542 166.021  0.00  0.00    +0.000 C 
ENDROOT
BRANCH   5   6
ATOM      6  N2  UNL     1     145.254 162.359 165.245  0.00  0.00    +0.000 N 
ATOM      7  C14 UNL     1     144.240 161.377 165.343  0.00  0.00    +0.000 C 
ATOM      8  N3  UNL     1     143.267 161.601 166.153  0.00  0.00    +0.000 NA
ATOM      9  N4  UNL     1     144.294 160.163 164.563  0.00  0.00    +0.000 N 
ATOM     10  H24 UNL     1     146.019 162.181 164.564  0.00  0.00    +0.000 HD
ATOM     11  H25 UNL     1     142.522 160.876 166.222  0.00  0.00    +0.000 HD
ATOM     12  H26 UNL     1     145.220 159.761 164.291  0.00  0.00    +0.000 HD
ATOM     13  H27 UNL     1     143.448 159.665 164.254  0.00  0.00    +0.000 HD
ENDBRANCH   5   6
BRANCH   2  14
ATOM     14  O2  UNL     1     145.717 165.002 168.462  0.00  0.00    +0.000 OA
ATOM     15  H19 UNL     1     145.363 165.832 168.908  0.00  0.00    +0.000 HD
ENDBRANCH   2  14
BRANCH   3  16
ATOM     16  C15 UNL     1     145.524 167.116 165.777  0.00  0.00    +0.000 C 
ATOM     17  O3  UNL     1     146.746 167.303 165.575  0.00  0.00    +0.000 OA
BRANCH  16  18
ATOM     18  O4  UNL     1     144.644 168.128 165.436  0.00  0.00    +0.000 OA
ATOM     19  H28 UNL     1     144.760 169.088 165.782  0.00  0.00    +0.000 HD
ENDBRANCH  16  18
ENDBRANCH   3  16
BRANCH   1  20
ATOM     20  C6  UNL     1     147.193 163.045 167.566  0.00  0.00    +0.000 C 
BRANCH  20  21
ATOM     21  N1  UNL     1     147.268 161.689 167.135  0.00  0.00    +0.000 N 
ATOM     22  C7  UNL     1     146.669 160.633 167.876  0.00  0.00    +0.000 C 
ATOM     23  O1  UNL     1     146.040 160.849 168.954  0.00  0.00    +0.000 OA
ATOM     24  C8  UNL     1     146.753 159.219 167.419  0.00  0.00    +0.000 C 
ATOM     25  H13 UNL     1     147.766 161.416 166.257  0.00  0.00    +0.000 HD
ENDBRANCH  20  21
BRANCH  20  26
ATOM     26  C3  UNL     1     148.516 163.551 168.053  0.00  0.00    +0.000 C 
BRANCH  26  28
ATOM     27  C1  UNL     1     148.858 164.810 170.203  0.00  0.00    +0.000 C 
ATOM     28  C2  UNL     1     148.672 163.494 169.547  0.00  0.00    +0.000 C 
ENDBRANCH  26  28
BRANCH  26  29
ATOM     29  C4  UNL     1     149.684 162.755 167.475  0.00  0.00    +0.000 C 
ATOM     30  C5  UNL     1     150.609 163.739 166.779  0.00  0.00    +0.000 C 
ENDBRANCH  26  29
ENDBRANCH  20  26
ENDBRANCH   1  20
TORSDOF 9
ENDMDL
MODEL 3
REMARK VINA RESULT:      -5.0     21.886     24.476
REMARK  Name = ./3D_structures\o55_MMV1593511_3D.pdb
REMARK  12 active torsions:
REMARK  status: ('A' for Active; 'I' for Inactive)
REMARK    1  A    between atoms: C1_1  and  C2_2
REMARK    2  A    between atoms: C2_2  and  C3_3
REMARK    3  A    between atoms: C3_3  and  C4_4
REMARK    4  A    between atoms: C3_3  and  C6_6
REMARK    5  A    between atoms: C4_4  and  C5_5
REMARK    6  A    between atoms: C6_6  and  N1_7
REMARK    7  A    between atoms: C6_6  and  C9_11
REMARK    8  A    between atoms: C7_8  and  C8_10
REMARK    9  A    between atoms: C10_12  and  O2_13
REMARK   10  A    between atoms: C11_14  and  C15_21
REMARK   11  A    between atoms: C13_16  and  N2_17
REMARK   12  A    between atoms: C15_21  and  O4_23
REMARK                            x       y       z     vdW  Elec       q    Type
REMARK                         _______ _______ _______ _____ _____    ______ ____
ROOT
ATOM      1  C9  UNL     1     161.798 145.103 169.906  0.00  0.00    +0.000 C 
ATOM      2  C10 UNL     1     160.867 144.375 170.859  0.00  0.00    +0.000 C 
ATOM      3  C11 UNL     1     160.979 145.115 172.186  0.00  0.00    +0.000 C 
ATOM      4  C12 UNL     1     161.954 146.266 171.921  0.00  0.00    +0.000 C 
ATOM      5  C13 UNL     1     161.701 146.499 170.442  0.00  0.00    +0.000 C 
ENDROOT
BRANCH   5   6
ATOM      6  N2  UNL     1     162.545 147.461 169.840  0.00  0.00    +0.000 N 
ATOM      7  C14 UNL     1     162.059 148.579 169.120  0.00  0.00    +0.000 C 
ATOM      8  N3  UNL     1     160.785 148.736 169.051  0.00  0.00    +0.000 NA
ATOM      9  N4  UNL     1     162.960 149.510 168.483  0.00  0.00    +0.000 N 
ATOM     10  H24 UNL     1     163.578 147.361 169.916  0.00  0.00    +0.000 HD
ATOM     11  H25 UNL     1     160.431 149.561 168.520  0.00  0.00    +0.000 HD
ATOM     12  H26 UNL     1     163.889 149.178 168.135  0.00  0.00    +0.000 HD
ATOM     13  H27 UNL     1     162.729 150.504 168.353  0.00  0.00    +0.000 HD
ENDBRANCH   5   6
BRANCH   2  14
ATOM     14  O2  UNL     1     159.564 144.569 170.386  0.00  0.00    +0.000 OA
ATOM     15  H19 UNL     1     158.911 143.998 170.894  0.00  0.00    +0.000 HD
ENDBRANCH   2  14
BRANCH   3  16
ATOM     16  C15 UNL     1     161.514 144.170 173.170  0.00  0.00    +0.000 C 
ATOM     17  O3  UNL     1     162.449 144.528 173.925  0.00  0.00    +0.000 OA
BRANCH  16  18
ATOM     18  O4  UNL     1     161.027 142.882 173.302  0.00  0.00    +0.000 OA
ATOM     19  H28 UNL     1     160.881 142.270 172.490  0.00  0.00    +0.000 HD
ENDBRANCH  16  18
ENDBRANCH   3  16
BRANCH   1  20
ATOM     20  C6  UNL     1     161.316 144.955 168.490  0.00  0.00    +0.000 C 
BRANCH  20  21
ATOM     21  N1  UNL     1     162.260 145.379 167.510  0.00  0.00    +0.000 N 
ATOM     22  C7  UNL     1     161.919 146.315 166.497  0.00  0.00    +0.000 C 
ATOM     23  O1  UNL     1     160.758 146.817 166.415  0.00  0.00    +0.000 OA
ATOM     24  C8  UNL     1     162.912 146.752 165.477  0.00  0.00    +0.000 C 
ATOM     25  H13 UNL     1     163.242 145.018 167.499  0.00  0.00    +0.000 HD
ENDBRANCH  20  21
BRANCH  20  26
ATOM     26  C3  UNL     1     160.828 143.562 168.231  0.00  0.00    +0.000 C 
BRANCH  26  28
ATOM     27  C1  UNL     1     160.262 142.934 165.862  0.00  0.00    +0.000 C 
ATOM     28  C2  UNL     1     159.782 143.480 167.154  0.00  0.00    +0.000 C 
ENDBRANCH  26  28
BRANCH  26  29
ATOM     29  C4  UNL     1     161.957 142.630 167.796  0.00  0.00    +0.000 C 
ATOM     30  C5  UNL     1     161.996 141.470 168.777  0.00  0.00    +0.000 C 
ENDBRANCH  26  29
ENDBRANCH  20  26
ENDBRANCH   1  20
TORSDOF 9
ENDMDL
MODEL 4
REMARK VINA RESULT:      -4.9     21.888     24.878
REMARK  Name = ./3D_structures\o55_MMV1593511_3D.pdb
REMARK  12 active torsions:
REMARK  status: ('A' for Active; 'I' for Inactive)
REMARK    1  A    between atoms: C1_1  and  C2_2
REMARK    2  A    between atoms: C2_2  and  C3_3
REMARK    3  A    between atoms: C3_3  and  C4_4
REMARK    4  A    between atoms: C3_3  and  C6_6
REMARK    5  A    between atoms: C4_4  and  C5_5
REMARK    6  A    between atoms: C6_6  and  N1_7
REMARK    7  A    between atoms: C6_6  and  C9_11
REMARK    8  A    between atoms: C7_8  and  C8_10
REMARK    9  A    between atoms: C10_12  and  O2_13
REMARK   10  A    between atoms: C11_14  and  C15_21
REMARK   11  A    between atoms: C13_16  and  N2_17
REMARK   12  A    between atoms: C15_21  and  O4_23
REMARK                            x       y       z     vdW  Elec       q    Type
REMARK                         _______ _______ _______ _____ _____    ______ ____
ROOT
ATOM      1  C9  UNL     1     161.857 145.628 169.232  0.00  0.00    +0.000 C 
ATOM      2  C10 UNL     1     162.712 146.680 168.550  0.00  0.00    +0.000 C 
ATOM      3  C11 UNL     1     162.420 147.983 169.284  0.00  0.00    +0.000 C 
ATOM      4  C12 UNL     1     161.424 147.607 170.386  0.00  0.00    +0.000 C 
ATOM      5  C13 UNL     1     161.825 146.164 170.631  0.00  0.00    +0.000 C 
ENDROOT
BRANCH   5   6
ATOM      6  N2  UNL     1     161.006 145.468 171.550  0.00  0.00    +0.000 N 
ATOM      7  C14 UNL     1     161.493 144.906 172.755  0.00  0.00    +0.000 C 
ATOM      8  N3  UNL     1     162.736 145.079 173.034  0.00  0.00    +0.000 NA
ATOM      9  N4  UNL     1     160.627 144.164 173.641  0.00  0.00    +0.000 N 
ATOM     10  H24 UNL     1     159.992 145.349 171.351  0.00  0.00    +0.000 HD
ATOM     11  H25 UNL     1     163.091 144.664 173.922  0.00  0.00    +0.000 HD
ATOM     12  H26 UNL     1     159.814 143.637 173.250  0.00  0.00    +0.000 HD
ATOM     13  H27 UNL     1     160.774 144.130 174.659  0.00  0.00    +0.000 HD
ENDBRANCH   5   6
BRANCH   2  14
ATOM     14  O2  UNL     1     164.048 146.351 168.809  0.00  0.00    +0.000 OA
ATOM     15  H19 UNL     1     164.447 146.983 169.481  0.00  0.00    +0.000 HD
ENDBRANCH   2  14
BRANCH   3  16
ATOM     16  C15 UNL     1     161.827 148.908 168.314  0.00  0.00    +0.000 C 
ATOM     17  O3  UNL     1     160.587 148.898 168.130  0.00  0.00    +0.000 OA
BRANCH  16  18
ATOM     18  O4  UNL     1     162.588 149.802 167.582  0.00  0.00    +0.000 OA
ATOM     19  H28 UNL     1     163.556 149.595 167.308  0.00  0.00    +0.000 HD
ENDBRANCH  16  18
ENDBRANCH   3  16
BRANCH   1  20
ATOM     20  C6  UNL     1     162.497 144.274 169.108  0.00  0.00    +0.000 C 
BRANCH  20  21
ATOM     21  N1  UNL     1     163.374 143.947 170.183  0.00  0.00    +0.000 N 
ATOM     22  C7  UNL     1     164.731 143.587 169.960  0.00  0.00    +0.000 C 
ATOM     23  O1  UNL     1     165.225 143.538 168.795  0.00  0.00    +0.000 OA
ATOM     24  C8  UNL     1     165.639 143.247 171.089  0.00  0.00    +0.000 C 
ATOM     25  H13 UNL     1     163.054 143.961 171.179  0.00  0.00    +0.000 HD
ENDBRANCH  20  21
BRANCH  20  26
ATOM     26  C3  UNL     1     161.466 143.210 168.885  0.00  0.00    +0.000 C 
BRANCH  26  28
ATOM     27  C1  UNL     1     159.893 143.538 166.950  0.00  0.00    +0.000 C 
ATOM     28  C2  UNL     1     160.147 143.741 168.396  0.00  0.00    +0.000 C 
ENDBRANCH  26  28
BRANCH  26  29
ATOM     29  C4  UNL     1     161.916 142.180 167.852  0.00  0.00    +0.000 C 
ATOM     30  C5  UNL     1     162.165 140.873 168.587  0.00  0.00    +0.000 C 
ENDBRANCH  26  29
ENDBRANCH  20  26
ENDBRANCH   1  20
TORSDOF 9
ENDMDL
MODEL 5
REMARK VINA RESULT:      -4.9      1.134      1.846
REMARK  Name = ./3D_structures\o55_MMV1593511_3D.pdb
REMARK  12 active torsions:
REMARK  status: ('A' for Active; 'I' for Inactive)
REMARK    1  A    between atoms: C1_1  and  C2_2
REMARK    2  A    between atoms: C2_2  and  C3_3
REMARK    3  A    between atoms: C3_3  and  C4_4
REMARK    4  A    between atoms: C3_3  and  C6_6
REMARK    5  A    between atoms: C4_4  and  C5_5
REMARK    6  A    between atoms: C6_6  and  N1_7
REMARK    7  A    between atoms: C6_6  and  C9_11
REMARK    8  A    between atoms: C7_8  and  C8_10
REMARK    9  A    between atoms: C10_12  and  O2_13
REMARK   10  A    between atoms: C11_14  and  C15_21
REMARK   11  A    between atoms: C13_16  and  N2_17
REMARK   12  A    between atoms: C15_21  and  O4_23
REMARK                            x       y       z     vdW  Elec       q    Type
REMARK                         _______ _______ _______ _____ _____    ______ ____
ROOT
ATOM      1  C9  UNL     1     147.641 164.650 167.728  0.00  0.00    +0.000 C 
ATOM      2  C10 UNL     1     146.440 164.000 167.064  0.00  0.00    +0.000 C 
ATOM      3  C11 UNL     1     146.076 164.911 165.898  0.00  0.00    +0.000 C 
ATOM      4  C12 UNL     1     147.117 166.034 165.927  0.00  0.00    +0.000 C 
ATOM      5  C13 UNL     1     148.291 165.298 166.544  0.00  0.00    +0.000 C 
ENDROOT
BRANCH   5   6
ATOM      6  N2  UNL     1     149.422 166.104 166.815  0.00  0.00    +0.000 N 
ATOM      7  C14 UNL     1     150.674 165.925 166.179  0.00  0.00    +0.000 C 
ATOM      8  N3  UNL     1     150.763 165.005 165.284  0.00  0.00    +0.000 NA
ATOM      9  N4  UNL     1     151.813 166.744 166.520  0.00  0.00    +0.000 N 
ATOM     10  H24 UNL     1     149.353 166.872 167.513  0.00  0.00    +0.000 HD
ATOM     11  H25 UNL     1     151.686 164.877 164.818  0.00  0.00    +0.000 HD
ATOM     12  H26 UNL     1     151.903 167.130 167.488  0.00  0.00    +0.000 HD
ATOM     13  H27 UNL     1     152.554 166.973 165.844  0.00  0.00    +0.000 HD
ENDBRANCH   5   6
BRANCH   2  14
ATOM     14  O2  UNL     1     146.880 162.788 166.521  0.00  0.00    +0.000 OA
ATOM     15  H19 UNL     1     146.626 162.719 165.550  0.00  0.00    +0.000 HD
ENDBRANCH   2  14
BRANCH   3  16
ATOM     16  C15 UNL     1     144.724 165.420 166.146  0.00  0.00    +0.000 C 
ATOM     17  O3  UNL     1     144.420 166.575 165.765  0.00  0.00    +0.000 OA
BRANCH  16  18
ATOM     18  O4  UNL     1     143.757 164.671 166.794  0.00  0.00    +0.000 OA
ATOM     19  H28 UNL     1     143.785 163.645 166.808  0.00  0.00    +0.000 HD
ENDBRANCH  16  18
ENDBRANCH   3  16
BRANCH   1  20
ATOM     20  C6  UNL     1     148.491 163.609 168.402  0.00  0.00    +0.000 C 
BRANCH  20  21
ATOM     21  N1  UNL     1     149.605 163.180 167.625  0.00  0.00    +0.000 N 
ATOM     22  C7  UNL     1     149.814 161.810 167.307  0.00  0.00    +0.000 C 
ATOM     23  O1  UNL     1     149.020 160.905 167.701  0.00  0.00    +0.000 OA
ATOM     24  C8  UNL     1     150.982 161.371 166.495  0.00  0.00    +0.000 C 
ATOM     25  H13 UNL     1     150.313 163.856 167.256  0.00  0.00    +0.000 HD
ENDBRANCH  20  21
BRANCH  20  26
ATOM     26  C3  UNL     1     148.904 164.057 169.771  0.00  0.00    +0.000 C 
BRANCH  26  28
ATOM     27  C1  UNL     1     151.143 163.295 170.627  0.00  0.00    +0.000 C 
ATOM     28  C2  UNL     1     150.376 164.333 169.897  0.00  0.00    +0.000 C 
ENDBRANCH  26  28
BRANCH  26  29
ATOM     29  C4  UNL     1     148.195 165.341 170.194  0.00  0.00    +0.000 C 
ATOM     30  C5  UNL     1     149.256 166.305 170.699  0.00  0.00    +0.000 C 
ENDBRANCH  26  29
ENDBRANCH  20  26
ENDBRANCH   1  20
TORSDOF 9
ENDMDL
MODEL 6
REMARK VINA RESULT:      -4.9     23.153     25.243
REMARK  Name = ./3D_structures\o55_MMV1593511_3D.pdb
REMARK  12 active torsions:
REMARK  status: ('A' for Active; 'I' for Inactive)
REMARK    1  A    between atoms: C1_1  and  C2_2
REMARK    2  A    between atoms: C2_2  and  C3_3
REMARK    3  A    between atoms: C3_3  and  C4_4
REMARK    4  A    between atoms: C3_3  and  C6_6
REMARK    5  A    between atoms: C4_4  and  C5_5
REMARK    6  A    between atoms: C6_6  and  N1_7
REMARK    7  A    between atoms: C6_6  and  C9_11
REMARK    8  A    between atoms: C7_8  and  C8_10
REMARK    9  A    between atoms: C10_12  and  O2_13
REMARK   10  A    between atoms: C11_14  and  C15_21
REMARK   11  A    between atoms: C13_16  and  N2_17
REMARK   12  A    between atoms: C15_21  and  O4_23
REMARK                            x       y       z     vdW  Elec       q    Type
REMARK                         _______ _______ _______ _____ _____    ______ ____
ROOT
ATOM      1  C9  UNL     1     162.323 144.449 169.889  0.00  0.00    +0.000 C 
ATOM      2  C10 UNL     1     161.180 143.989 170.775  0.00  0.00    +0.000 C 
ATOM      3  C11 UNL     1     160.932 145.134 171.749  0.00  0.00    +0.000 C 
ATOM      4  C12 UNL     1     161.932 146.223 171.349  0.00  0.00    +0.000 C 
ATOM      5  C13 UNL     1     162.076 145.926 169.868  0.00  0.00    +0.000 C 
ENDROOT
BRANCH   5   6
ATOM      6  N2  UNL     1     163.041 146.713 169.196  0.00  0.00    +0.000 N 
ATOM      7  C14 UNL     1     162.711 147.668 168.205  0.00  0.00    +0.000 C 
ATOM      8  N3  UNL     1     161.465 147.848 167.939  0.00  0.00    +0.000 NA
ATOM      9  N4  UNL     1     163.734 148.416 167.513  0.00  0.00    +0.000 N 
ATOM     10  H24 UNL     1     164.049 146.600 169.424  0.00  0.00    +0.000 HD
ATOM     11  H25 UNL     1     161.226 148.552 167.209  0.00  0.00    +0.000 HD
ATOM     12  H26 UNL     1     164.677 147.990 167.364  0.00  0.00    +0.000 HD
ATOM     13  H27 UNL     1     163.578 149.368 167.153  0.00  0.00    +0.000 HD
ENDBRANCH   5   6
BRANCH   2  14
ATOM     14  O2  UNL     1     160.047 143.885 169.961  0.00  0.00    +0.000 OA
ATOM     15  H19 UNL     1     159.994 144.661 169.323  0.00  0.00    +0.000 HD
ENDBRANCH   2  14
BRANCH   3  16
ATOM     16  C15 UNL     1     161.197 144.627 173.098  0.00  0.00    +0.000 C 
ATOM     17  O3  UNL     1     161.801 145.353 173.922  0.00  0.00    +0.000 OA
BRANCH  16  18
ATOM     18  O4  UNL     1     160.805 143.364 173.505  0.00  0.00    +0.000 OA
ATOM     19  H28 UNL     1     161.426 142.750 174.046  0.00  0.00    +0.000 HD
ENDBRANCH  16  18
ENDBRANCH   3  16
BRANCH   1  20
ATOM     20  C6  UNL     1     162.234 143.792 168.539  0.00  0.00    +0.000 C 
BRANCH  20  21
ATOM     21  N1  UNL     1     161.733 144.646 167.513  0.00  0.00    +0.000 N 
ATOM     22  C7  UNL     1     160.595 144.296 166.737  0.00  0.00    +0.000 C 
ATOM     23  O1  UNL     1     159.971 143.209 166.920  0.00  0.00    +0.000 OA
ATOM     24  C8  UNL     1     160.080 145.193 165.666  0.00  0.00    +0.000 C 
ATOM     25  H13 UNL     1     162.184 145.563 167.290  0.00  0.00    +0.000 HD
ENDBRANCH  20  21
BRANCH  20  26
ATOM     26  C3  UNL     1     163.540 143.166 168.158  0.00  0.00    +0.000 C 
BRANCH  26  28
ATOM     27  C1  UNL     1     165.934 142.847 168.860  0.00  0.00    +0.000 C 
ATOM     28  C2  UNL     1     164.542 143.130 169.280  0.00  0.00    +0.000 C 
ENDBRANCH  26  28
BRANCH  26  29
ATOM     29  C4  UNL     1     163.372 141.722 167.694  0.00  0.00    +0.000 C 
ATOM     30  C5  UNL     1     162.318 141.077 168.579  0.00  0.00    +0.000 C 
ENDBRANCH  26  29
ENDBRANCH  20  26
ENDBRANCH   1  20
TORSDOF 9
ENDMDL
MODEL 7
REMARK VINA RESULT:      -4.8      2.670      4.885
REMARK  Name = ./3D_structures\o55_MMV1593511_3D.pdb
REMARK  12 active torsions:
REMARK  status: ('A' for Active; 'I' for Inactive)
REMARK    1  A    between atoms: C1_1  and  C2_2
REMARK    2  A    between atoms: C2_2  and  C3_3
REMARK    3  A    between atoms: C3_3  and  C4_4
REMARK    4  A    between atoms: C3_3  and  C6_6
REMARK    5  A    between atoms: C4_4  and  C5_5
REMARK    6  A    between atoms: C6_6  and  N1_7
REMARK    7  A    between atoms: C6_6  and  C9_11
REMARK    8  A    between atoms: C7_8  and  C8_10
REMARK    9  A    between atoms: C10_12  and  O2_13
REMARK   10  A    between atoms: C11_14  and  C15_21
REMARK   11  A    between atoms: C13_16  and  N2_17
REMARK   12  A    between atoms: C15_21  and  O4_23
REMARK                            x       y       z     vdW  Elec       q    Type
REMARK                         _______ _______ _______ _____ _____    ______ ____
ROOT
ATOM      1  C9  UNL     1     149.503 164.609 166.136  0.00  0.00    +0.000 C 
ATOM      2  C10 UNL     1     148.906 165.993 166.308  0.00  0.00    +0.000 C 
ATOM      3  C11 UNL     1     147.481 165.766 166.797  0.00  0.00    +0.000 C 
ATOM      4  C12 UNL     1     147.336 164.245 166.916  0.00  0.00    +0.000 C 
ATOM      5  C13 UNL     1     148.775 163.860 167.211  0.00  0.00    +0.000 C 
ENDROOT
BRANCH   5   6
ATOM      6  N2  UNL     1     149.014 162.468 167.277  0.00  0.00    +0.000 N 
ATOM      7  C14 UNL     1     149.314 161.787 168.481  0.00  0.00    +0.000 C 
ATOM      8  N3  UNL     1     149.328 162.475 169.568  0.00  0.00    +0.000 NA
ATOM      9  N4  UNL     1     149.596 160.372 168.493  0.00  0.00    +0.000 N 
ATOM     10  H24 UNL     1     148.975 161.895 166.409  0.00  0.00    +0.000 HD
ATOM     11  H25 UNL     1     149.548 161.971 170.453  0.00  0.00    +0.000 HD
ATOM     12  H26 UNL     1     150.035 159.923 167.657  0.00  0.00    +0.000 HD
ATOM     13  H27 UNL     1     149.382 159.770 169.300  0.00  0.00    +0.000 HD
ENDBRANCH   5   6
BRANCH   2  14
ATOM     14  O2  UNL     1     149.606 166.614 167.349  0.00  0.00    +0.000 OA
ATOM     15  H19 UNL     1     150.383 167.142 166.991  0.00  0.00    +0.000 HD
ENDBRANCH   2  14
BRANCH   3  16
ATOM     16  C15 UNL     1     146.577 166.316 165.783  0.00  0.00    +0.000 C 
ATOM     17  O3  UNL     1     146.481 167.559 165.651  0.00  0.00    +0.000 OA
BRANCH  16  18
ATOM     18  O4  UNL     1     145.815 165.511 164.954  0.00  0.00    +0.000 OA
ATOM     19  H28 UNL     1     145.788 165.651 163.937  0.00  0.00    +0.000 HD
ENDBRANCH  16  18
ENDBRANCH   3  16
BRANCH   1  20
ATOM     20  C6  UNL     1     150.994 164.656 166.324  0.00  0.00    +0.000 C 
BRANCH  20  21
ATOM     21  N1  UNL     1     151.441 164.077 167.548  0.00  0.00    +0.000 N 
ATOM     22  C7  UNL     1     152.118 164.843 168.535  0.00  0.00    +0.000 C 
ATOM     23  O1  UNL     1     152.357 166.077 168.374  0.00  0.00    +0.000 OA
ATOM     24  C8  UNL     1     152.583 164.230 169.809  0.00  0.00    +0.000 C 
ATOM     25  H13 UNL     1     151.289 163.066 167.767  0.00  0.00    +0.000 HD
ENDBRANCH  20  21
BRANCH  20  26
ATOM     26  C3  UNL     1     151.704 164.076 165.139  0.00  0.00    +0.000 C 
BRANCH  26  28
ATOM     27  C1  UNL     1     152.415 166.470 164.838  0.00  0.00    +0.000 C 
ATOM     28  C2  UNL     1     152.603 165.055 164.436  0.00  0.00    +0.000 C 
ENDBRANCH  26  28
BRANCH  26  29
ATOM     29  C4  UNL     1     152.586 162.891 165.521  0.00  0.00    +0.000 C 
ATOM     30  C5  UNL     1     152.093 161.683 164.742  0.00  0.00    +0.000 C 
ENDBRANCH  26  29
ENDBRANCH  20  26
ENDBRANCH   1  20
TORSDOF 9
ENDMDL
MODEL 8
REMARK VINA RESULT:      -4.8      9.802     12.034
REMARK  Name = ./3D_structures\o55_MMV1593511_3D.pdb
REMARK  12 active torsions:
REMARK  status: ('A' for Active; 'I' for Inactive)
REMARK    1  A    between atoms: C1_1  and  C2_2
REMARK    2  A    between atoms: C2_2  and  C3_3
REMARK    3  A    between atoms: C3_3  and  C4_4
REMARK    4  A    between atoms: C3_3  and  C6_6
REMARK    5  A    between atoms: C4_4  and  C5_5
REMARK    6  A    between atoms: C6_6  and  N1_7
REMARK    7  A    between atoms: C6_6  and  C9_11
REMARK    8  A    between atoms: C7_8  and  C8_10
REMARK    9  A    between atoms: C10_12  and  O2_13
REMARK   10  A    between atoms: C11_14  and  C15_21
REMARK   11  A    between atoms: C13_16  and  N2_17
REMARK   12  A    between atoms: C15_21  and  O4_23
REMARK                            x       y       z     vdW  Elec       q    Type
REMARK                         _______ _______ _______ _____ _____    ______ ____
ROOT
ATOM      1  C9  UNL     1     157.416 158.645 168.323  0.00  0.00    +0.000 C 
ATOM      2  C10 UNL     1     158.796 158.158 168.728  0.00  0.00    +0.000 C 
ATOM      3  C11 UNL     1     159.768 159.216 168.220  0.00  0.00    +0.000 C 
ATOM      4  C12 UNL     1     158.888 160.288 167.570  0.00  0.00    +0.000 C 
ATOM      5  C13 UNL     1     157.619 160.128 168.387  0.00  0.00    +0.000 C 
ENDROOT
BRANCH   5   6
ATOM      6  N2  UNL     1     156.533 160.927 167.960  0.00  0.00    +0.000 N 
ATOM      7  C14 UNL     1     155.965 161.954 168.753  0.00  0.00    +0.000 C 
ATOM      8  N3  UNL     1     156.497 162.186 169.901  0.00  0.00    +0.000 NA
ATOM      9  N4  UNL     1     154.827 162.714 168.293  0.00  0.00    +0.000 N 
ATOM     10  H24 UNL     1     156.114 160.771 167.021  0.00  0.00    +0.000 HD
ATOM     11  H25 UNL     1     156.077 162.942 170.481  0.00  0.00    +0.000 HD
ATOM     12  H26 UNL     1     154.133 162.271 167.649  0.00  0.00    +0.000 HD
ATOM     13  H27 UNL     1     154.663 163.691 168.573  0.00  0.00    +0.000 HD
ENDBRANCH   5   6
BRANCH   2  14
ATOM     14  O2  UNL     1     158.846 158.188 170.126  0.00  0.00    +0.000 OA
ATOM     15  H19 UNL     1     159.765 157.947 170.456  0.00  0.00    +0.000 HD
ENDBRANCH   2  14
BRANCH   3  16
ATOM     16  C15 UNL     1     160.644 158.569 167.239  0.00  0.00    +0.000 C 
ATOM     17  O3  UNL     1     160.445 158.757 166.016  0.00  0.00    +0.000 OA
BRANCH  16  18
ATOM     18  O4  UNL     1     161.694 157.749 167.611  0.00  0.00    +0.000 OA
ATOM     19  H28 UNL     1     161.939 157.593 168.596  0.00  0.00    +0.000 HD
ENDBRANCH  16  18
ENDBRANCH   3  16
BRANCH   1  20
ATOM     20  C6  UNL     1     156.378 158.126 169.279  0.00  0.00    +0.000 C 
BRANCH  20  21
ATOM     21  N1  UNL     1     156.021 159.050 170.304  0.00  0.00    +0.000 N 
ATOM     22  C7  UNL     1     156.174 158.737 171.682  0.00  0.00    +0.000 C 
ATOM     23  O1  UNL     1     156.634 157.621 172.065  0.00  0.00    +0.000 OA
ATOM     24  C8  UNL     1     155.797 159.709 172.745  0.00  0.00    +0.000 C 
ATOM     25  H13 UNL     1     155.633 159.996 170.082  0.00  0.00    +0.000 HD
ENDBRANCH  20  21
BRANCH  20  26
ATOM     26  C3  UNL     1     155.177 157.616 168.543  0.00  0.00    +0.000 C 
BRANCH  26  28
ATOM     27  C1  UNL     1     152.901 157.830 169.591  0.00  0.00    +0.000 C 
ATOM     28  C2  UNL     1     153.945 158.454 168.744  0.00  0.00    +0.000 C 
ENDBRANCH  26  28
BRANCH  26  29
ATOM     29  C4  UNL     1     155.408 157.559 167.035  0.00  0.00    +0.000 C 
ATOM     30  C5  UNL     1     154.383 158.470 166.380  0.00  0.00    +0.000 C 
ENDBRANCH  26  29
ENDBRANCH  20  26
ENDBRANCH   1  20
TORSDOF 9
ENDMDL
MODEL 9
REMARK VINA RESULT:      -4.6      7.108      9.320
REMARK  Name = ./3D_structures\o55_MMV1593511_3D.pdb
REMARK  12 active torsions:
REMARK  status: ('A' for Active; 'I' for Inactive)
REMARK    1  A    between atoms: C1_1  and  C2_2
REMARK    2  A    between atoms: C2_2  and  C3_3
REMARK    3  A    between atoms: C3_3  and  C4_4
REMARK    4  A    between atoms: C3_3  and  C6_6
REMARK    5  A    between atoms: C4_4  and  C5_5
REMARK    6  A    between atoms: C6_6  and  N1_7
REMARK    7  A    between atoms: C6_6  and  C9_11
REMARK    8  A    between atoms: C7_8  and  C8_10
REMARK    9  A    between atoms: C10_12  and  O2_13
REMARK   10  A    between atoms: C11_14  and  C15_21
REMARK   11  A    between atoms: C13_16  and  N2_17
REMARK   12  A    between atoms: C15_21  and  O4_23
REMARK                            x       y       z     vdW  Elec       q    Type
REMARK                         _______ _______ _______ _____ _____    ______ ____
ROOT
ATOM      1  C9  UNL     1     153.691 159.407 169.714  0.00  0.00    +0.000 C 
ATOM      2  C10 UNL     1     152.838 158.220 170.123  0.00  0.00    +0.000 C 
ATOM      3  C11 UNL     1     151.408 158.597 169.756  0.00  0.00    +0.000 C 
ATOM      4  C12 UNL     1     151.513 159.985 169.115  0.00  0.00    +0.000 C 
ATOM      5  C13 UNL     1     152.913 159.909 168.536  0.00  0.00    +0.000 C 
ENDROOT
BRANCH   5   6
ATOM      6  N2  UNL     1     153.377 161.109 167.945  0.00  0.00    +0.000 N 
ATOM      7  C14 UNL     1     153.478 161.297 166.546  0.00  0.00    +0.000 C 
ATOM      8  N3  UNL     1     153.090 160.336 165.784  0.00  0.00    +0.000 NA
ATOM      9  N4  UNL     1     154.000 162.523 165.990  0.00  0.00    +0.000 N 
ATOM     10  H24 UNL     1     153.663 161.905 168.550  0.00  0.00    +0.000 HD
ATOM     11  H25 UNL     1     153.166 160.478 164.755  0.00  0.00    +0.000 HD
ATOM     12  H26 UNL     1     154.710 163.074 166.524  0.00  0.00    +0.000 HD
ATOM     13  H27 UNL     1     153.700 162.888 165.076  0.00  0.00    +0.000 HD
ENDBRANCH   5   6
BRANCH   2  14
ATOM     14  O2  UNL     1     153.207 157.149 169.301  0.00  0.00    +0.000 OA
ATOM     15  H19 UNL     1     154.145 156.849 169.505  0.00  0.00    +0.000 HD
ENDBRANCH   2  14
BRANCH   3  16
ATOM     16  C15 UNL     1     150.632 158.633 170.999  0.00  0.00    +0.000 C 
ATOM     17  O3  UNL     1     151.126 159.169 172.019  0.00  0.00    +0.000 OA
BRANCH  16  18
ATOM     18  O4  UNL     1     149.362 158.094 171.095  0.00  0.00    +0.000 OA
ATOM     19  H28 UNL     1     148.846 157.768 170.269  0.00  0.00    +0.000 HD
ENDBRANCH  16  18
ENDBRANCH   3  16
BRANCH   1  20
ATOM     20  C6  UNL     1     155.086 158.958 169.382  0.00  0.00    +0.000 C 
BRANCH  20  21
ATOM     21  N1  UNL     1     155.444 159.142 168.015  0.00  0.00    +0.000 N 
ATOM     22  C7  UNL     1     155.636 158.042 167.136  0.00  0.00    +0.000 C 
ATOM     23  O1  UNL     1     155.500 156.844 167.526  0.00  0.00    +0.000 OA
ATOM     24  C8  UNL     1     156.010 158.244 165.709  0.00  0.00    +0.000 C 
ATOM     25  H13 UNL     1     155.578 160.095 167.604  0.00  0.00    +0.000 HD
ENDBRANCH  20  21
BRANCH  20  26
ATOM     26  C3  UNL     1     156.086 159.579 170.310  0.00  0.00    +0.000 C 
BRANCH  26  28
ATOM     27  C1  UNL     1     155.821 159.568 172.811  0.00  0.00    +0.000 C 
ATOM     28  C2  UNL     1     156.256 158.829 171.602  0.00  0.00    +0.000 C 
ENDBRANCH  26  28
BRANCH  26  29
ATOM     29  C4  UNL     1     157.476 159.664 169.684  0.00  0.00    +0.000 C 
ATOM     30  C5  UNL     1     158.264 158.453 170.154  0.00  0.00    +0.000 C 
ENDBRANCH  26  29
ENDBRANCH  20  26
ENDBRANCH   1  20
TORSDOF 9
ENDMDL
