MODEL 1
REMARK VINA RESULT:      -5.9      0.000      0.000
REMARK  Name = ./3D_structures\o56_MMV637306_3D.pdb
REMARK  4 active torsions:
REMARK  status: ('A' for Active; 'I' for Inactive)
REMARK    1  A    between atoms: C1_2  and  N1_3
REMARK    2  A    between atoms: C4_8  and  O2_12
REMARK    3  A    between atoms: C9_15  and  C10_16
REMARK    4  A    between atoms: C10_16  and  O3_17
REMARK                            x       y       z     vdW  Elec       q    Type
REMARK                         _______ _______ _______ _____ _____    ______ ____
ROOT
ATOM      1  N1  UNL     1     144.097 164.288 165.523  0.00  0.00    +0.000 N 
ATOM      2  C2  UNL     1     145.148 165.103 165.678  0.00  0.00    +0.000 A 
ATOM      3  N2  UNL     1     146.460 164.848 165.872  0.00  0.00    +0.000 NA
ATOM      4  C3  UNL     1     147.306 165.887 165.999  0.00  0.00    +0.000 C 
ATOM      5  N3  UNL     1     146.835 167.163 165.929  0.00  0.00    +0.000 NA
ATOM      6  C4  UNL     1     145.546 167.436 165.739  0.00  0.00    +0.000 C 
ATOM      7  C5  UNL     1     144.654 166.389 165.606  0.00  0.00    +0.000 A 
ATOM      8  N4  UNL     1     143.305 166.344 165.406  0.00  0.00    +0.000 NA
ATOM      9  C6  UNL     1     142.990 165.035 165.358  0.00  0.00    +0.000 A 
ENDROOT
BRANCH   1  11
ATOM     10  O1  UNL     1     144.816 162.325 164.424  0.00  0.00    +0.000 OA
ATOM     11  C1  UNL     1     144.147 162.842 165.529  0.00  0.00    +0.000 C 
ATOM     12  C7  UNL     1     142.723 162.332 165.288  0.00  0.00    +0.000 C 
ATOM     13  C8  UNL     1     142.931 160.982 164.679  0.00  0.00    +0.000 C 
ATOM     14  C9  UNL     1     144.408 161.008 164.331  0.00  0.00    +0.000 C 
BRANCH  14  15
ATOM     15  C10 UNL     1     144.594 160.414 162.969  0.00  0.00    +0.000 C 
BRANCH  15  16
ATOM     16  O3  UNL     1     145.922 159.968 162.888  0.00  0.00    +0.000 OA
ATOM     17  H12 UNL     1     146.046 159.155 163.470  0.00  0.00    +0.000 HD
ENDBRANCH  15  16
ENDBRANCH  14  15
ENDBRANCH   1  11
BRANCH   6  18
ATOM     18  O2  UNL     1     145.025 168.726 165.662  0.00  0.00    +0.000 OA
ATOM     19  H4  UNL     1     144.183 168.915 165.099  0.00  0.00    +0.000 HD
ENDBRANCH   6  18
TORSDOF 4
ENDMDL
MODEL 2
REMARK VINA RESULT:      -5.6     10.285     11.487
REMARK  Name = ./3D_structures\o56_MMV637306_3D.pdb
REMARK  4 active torsions:
REMARK  status: ('A' for Active; 'I' for Inactive)
REMARK    1  A    between atoms: C1_2  and  N1_3
REMARK    2  A    between atoms: C4_8  and  O2_12
REMARK    3  A    between atoms: C9_15  and  C10_16
REMARK    4  A    between atoms: C10_16  and  O3_17
REMARK                            x       y       z     vdW  Elec       q    Type
REMARK                         _______ _______ _______ _____ _____    ______ ____
ROOT
ATOM      1  N1  UNL     1     147.624 174.918 164.283  0.00  0.00    +0.000 N 
ATOM      2  C2  UNL     1     146.673 174.566 165.158  0.00  0.00    +0.000 A 
ATOM      3  N2  UNL     1     146.714 174.361 166.492  0.00  0.00    +0.000 NA
ATOM      4  C3  UNL     1     145.579 174.006 167.124  0.00  0.00    +0.000 C 
ATOM      5  N3  UNL     1     144.422 173.862 166.420  0.00  0.00    +0.000 NA
ATOM      6  C4  UNL     1     144.362 174.058 165.105  0.00  0.00    +0.000 C 
ATOM      7  C5  UNL     1     145.511 174.423 164.429  0.00  0.00    +0.000 A 
ATOM      8  N4  UNL     1     145.765 174.690 163.116  0.00  0.00    +0.000 NA
ATOM      9  C6  UNL     1     147.076 174.993 163.056  0.00  0.00    +0.000 A 
ENDROOT
BRANCH   1  11
ATOM     10  O1  UNL     1     149.853 175.025 163.509  0.00  0.00    +0.000 OA
ATOM     11  C1  UNL     1     149.010 175.175 164.607  0.00  0.00    +0.000 C 
ATOM     12  C7  UNL     1     149.488 174.039 165.515  0.00  0.00    +0.000 C 
ATOM     13  C8  UNL     1     150.965 173.996 165.278  0.00  0.00    +0.000 C 
ATOM     14  C9  UNL     1     151.118 174.859 164.039  0.00  0.00    +0.000 C 
BRANCH  14  15
ATOM     15  C10 UNL     1     152.080 174.194 163.104  0.00  0.00    +0.000 C 
BRANCH  15  16
ATOM     16  O3  UNL     1     151.462 173.025 162.633  0.00  0.00    +0.000 OA
ATOM     17  H12 UNL     1     152.161 172.335 162.407  0.00  0.00    +0.000 HD
ENDBRANCH  15  16
ENDBRANCH  14  15
ENDBRANCH   1  11
BRANCH   6  18
ATOM     18  O2  UNL     1     143.199 173.921 164.349  0.00  0.00    +0.000 OA
ATOM     19  H4  UNL     1     143.235 173.982 163.321  0.00  0.00    +0.000 HD
ENDBRANCH   6  18
TORSDOF 4
ENDMDL
MODEL 3
REMARK VINA RESULT:      -5.3      3.231      5.337
REMARK  Name = ./3D_structures\o56_MMV637306_3D.pdb
REMARK  4 active torsions:
REMARK  status: ('A' for Active; 'I' for Inactive)
REMARK    1  A    between atoms: C1_2  and  N1_3
REMARK    2  A    between atoms: C4_8  and  O2_12
REMARK    3  A    between atoms: C9_15  and  C10_16
REMARK    4  A    between atoms: C10_16  and  O3_17
REMARK                            x       y       z     vdW  Elec       q    Type
REMARK                         _______ _______ _______ _____ _____    ______ ____
ROOT
ATOM      1  N1  UNL     1     147.353 164.984 166.662  0.00  0.00    +0.000 N 
ATOM      2  C2  UNL     1     146.373 165.811 166.275  0.00  0.00    +0.000 A 
ATOM      3  N2  UNL     1     146.375 167.130 165.983  0.00  0.00    +0.000 NA
ATOM      4  C3  UNL     1     145.217 167.709 165.616  0.00  0.00    +0.000 C 
ATOM      5  N3  UNL     1     144.076 166.969 165.544  0.00  0.00    +0.000 NA
ATOM      6  C4  UNL     1     144.053 165.669 165.828  0.00  0.00    +0.000 C 
ATOM      7  C5  UNL     1     145.226 165.047 166.208  0.00  0.00    +0.000 A 
ATOM      8  N4  UNL     1     145.520 163.761 166.555  0.00  0.00    +0.000 NA
ATOM      9  C6  UNL     1     146.839 163.752 166.828  0.00  0.00    +0.000 A 
ENDROOT
BRANCH   1  11
ATOM     10  O1  UNL     1     149.347 165.801 165.695  0.00  0.00    +0.000 OA
ATOM     11  C1  UNL     1     148.736 165.358 166.864  0.00  0.00    +0.000 C 
ATOM     12  C7  UNL     1     149.521 164.074 167.149  0.00  0.00    +0.000 C 
ATOM     13  C8  UNL     1     150.912 164.408 166.711  0.00  0.00    +0.000 C 
ATOM     14  C9  UNL     1     150.705 165.690 165.926  0.00  0.00    +0.000 C 
BRANCH  14  15
ATOM     15  C10 UNL     1     151.526 165.628 164.675  0.00  0.00    +0.000 C 
BRANCH  15  16
ATOM     16  O3  UNL     1     151.530 164.293 164.246  0.00  0.00    +0.000 OA
ATOM     17  H12 UNL     1     151.429 163.678 165.038  0.00  0.00    +0.000 HD
ENDBRANCH  15  16
ENDBRANCH  14  15
ENDBRANCH   1  11
BRANCH   6  18
ATOM     18  O2  UNL     1     142.907 164.878 165.766  0.00  0.00    +0.000 OA
ATOM     19  H4  UNL     1     142.342 164.846 164.906  0.00  0.00    +0.000 HD
ENDBRANCH   6  18
TORSDOF 4
ENDMDL
MODEL 4
REMARK VINA RESULT:      -5.3      2.216      2.479
REMARK  Name = ./3D_structures\o56_MMV637306_3D.pdb
REMARK  4 active torsions:
REMARK  status: ('A' for Active; 'I' for Inactive)
REMARK    1  A    between atoms: C1_2  and  N1_3
REMARK    2  A    between atoms: C4_8  and  O2_12
REMARK    3  A    between atoms: C9_15  and  C10_16
REMARK    4  A    between atoms: C10_16  and  O3_17
REMARK                            x       y       z     vdW  Elec       q    Type
REMARK                         _______ _______ _______ _____ _____    ______ ____
ROOT
ATOM      1  N1  UNL     1     145.490 163.639 166.897  0.00  0.00    +0.000 N 
ATOM      2  C2  UNL     1     146.137 164.754 166.534  0.00  0.00    +0.000 A 
ATOM      3  N2  UNL     1     147.452 165.064 166.522  0.00  0.00    +0.000 NA
ATOM      4  C3  UNL     1     147.821 166.287 166.098  0.00  0.00    +0.000 C 
ATOM      5  N3  UNL     1     146.878 167.182 165.691  0.00  0.00    +0.000 NA
ATOM      6  C4  UNL     1     145.578 166.896 165.695  0.00  0.00    +0.000 C 
ATOM      7  C5  UNL     1     145.169 165.648 166.126  0.00  0.00    +0.000 A 
ATOM      8  N4  UNL     1     143.940 165.068 166.244  0.00  0.00    +0.000 NA
ATOM      9  C6  UNL     1     144.169 163.829 166.721  0.00  0.00    +0.000 A 
ENDROOT
BRANCH   1  11
ATOM     10  O1  UNL     1     146.114 161.405 166.454  0.00  0.00    +0.000 OA
ATOM     11  C1  UNL     1     146.111 162.431 167.394  0.00  0.00    +0.000 C 
ATOM     12  C7  UNL     1     145.190 161.852 168.472  0.00  0.00    +0.000 C 
ATOM     13  C8  UNL     1     145.511 160.390 168.461  0.00  0.00    +0.000 C 
ATOM     14  C9  UNL     1     146.308 160.245 167.178  0.00  0.00    +0.000 C 
BRANCH  14  15
ATOM     15  C10 UNL     1     145.855 159.007 166.467  0.00  0.00    +0.000 C 
BRANCH  15  16
ATOM     16  O3  UNL     1     146.415 159.038 165.181  0.00  0.00    +0.000 OA
ATOM     17  H12 UNL     1     145.797 159.521 164.549  0.00  0.00    +0.000 HD
ENDBRANCH  15  16
ENDBRANCH  14  15
ENDBRANCH   1  11
BRANCH   6  18
ATOM     18  O2  UNL     1     144.583 167.782 165.286  0.00  0.00    +0.000 OA
ATOM     19  H4  UNL     1     143.660 167.430 164.993  0.00  0.00    +0.000 HD
ENDBRANCH   6  18
TORSDOF 4
ENDMDL
MODEL 5
REMARK VINA RESULT:      -5.2      1.998      3.152
REMARK  Name = ./3D_structures\o56_MMV637306_3D.pdb
REMARK  4 active torsions:
REMARK  status: ('A' for Active; 'I' for Inactive)
REMARK    1  A    between atoms: C1_2  and  N1_3
REMARK    2  A    between atoms: C4_8  and  O2_12
REMARK    3  A    between atoms: C9_15  and  C10_16
REMARK    4  A    between atoms: C10_16  and  O3_17
REMARK                            x       y       z     vdW  Elec       q    Type
REMARK                         _______ _______ _______ _____ _____    ______ ____
ROOT
ATOM      1  N1  UNL     1     146.789 164.452 166.918  0.00  0.00    +0.000 N 
ATOM      2  C2  UNL     1     145.732 165.119 166.435  0.00  0.00    +0.000 A 
ATOM      3  N2  UNL     1     144.462 164.730 166.190  0.00  0.00    +0.000 NA
ATOM      4  C3  UNL     1     143.597 165.634 165.694  0.00  0.00    +0.000 C 
ATOM      5  N3  UNL     1     144.007 166.910 165.450  0.00  0.00    +0.000 NA
ATOM      6  C4  UNL     1     145.254 167.312 165.685  0.00  0.00    +0.000 C 
ATOM      7  C5  UNL     1     146.165 166.406 166.194  0.00  0.00    +0.000 A 
ATOM      8  N4  UNL     1     147.482 166.511 166.532  0.00  0.00    +0.000 NA
ATOM      9  C6  UNL     1     147.840 165.291 166.976  0.00  0.00    +0.000 A 
ENDROOT
BRANCH   1  11
ATOM     10  O1  UNL     1     146.177 162.237 166.375  0.00  0.00    +0.000 OA
ATOM     11  C1  UNL     1     146.796 163.060 167.311  0.00  0.00    +0.000 C 
ATOM     12  C7  UNL     1     145.855 162.917 168.511  0.00  0.00    +0.000 C 
ATOM     13  C8  UNL     1     145.414 161.489 168.444  0.00  0.00    +0.000 C 
ATOM     14  C9  UNL     1     145.867 161.075 167.057  0.00  0.00    +0.000 C 
BRANCH  14  15
ATOM     15  C10 UNL     1     144.780 160.271 166.414  0.00  0.00    +0.000 C 
BRANCH  15  16
ATOM     16  O3  UNL     1     145.273 159.813 165.183  0.00  0.00    +0.000 OA
ATOM     17  H12 UNL     1     145.120 160.510 164.471  0.00  0.00    +0.000 HD
ENDBRANCH  15  16
ENDBRANCH  14  15
ENDBRANCH   1  11
BRANCH   6  18
ATOM     18  O2  UNL     1     145.713 168.608 165.450  0.00  0.00    +0.000 OA
ATOM     19  H4  UNL     1     145.968 169.221 166.237  0.00  0.00    +0.000 HD
ENDBRANCH   6  18
TORSDOF 4
ENDMDL
MODEL 6
REMARK VINA RESULT:      -5.1     23.502     25.543
REMARK  Name = ./3D_structures\o56_MMV637306_3D.pdb
REMARK  4 active torsions:
REMARK  status: ('A' for Active; 'I' for Inactive)
REMARK    1  A    between atoms: C1_2  and  N1_3
REMARK    2  A    between atoms: C4_8  and  O2_12
REMARK    3  A    between atoms: C9_15  and  C10_16
REMARK    4  A    between atoms: C10_16  and  O3_17
REMARK                            x       y       z     vdW  Elec       q    Type
REMARK                         _______ _______ _______ _____ _____    ______ ____
ROOT
ATOM      1  N1  UNL     1     161.816 146.346 170.120  0.00  0.00    +0.000 N 
ATOM      2  C2  UNL     1     161.925 146.126 171.437  0.00  0.00    +0.000 A 
ATOM      3  N2  UNL     1     162.344 146.920 172.447  0.00  0.00    +0.000 NA
ATOM      4  C3  UNL     1     162.348 146.421 173.697  0.00  0.00    +0.000 C 
ATOM      5  N3  UNL     1     161.933 145.144 173.924  0.00  0.00    +0.000 NA
ATOM      6  C4  UNL     1     161.517 144.347 172.943  0.00  0.00    +0.000 C 
ATOM      7  C5  UNL     1     161.503 144.830 171.649  0.00  0.00    +0.000 A 
ATOM      8  N4  UNL     1     161.141 144.273 170.458  0.00  0.00    +0.000 NA
ATOM      9  C6  UNL     1     161.344 145.231 169.533  0.00  0.00    +0.000 A 
ENDROOT
BRANCH   1  11
ATOM     10  O1  UNL     1     161.240 147.906 168.443  0.00  0.00    +0.000 OA
ATOM     11  C1  UNL     1     162.151 147.580 169.444  0.00  0.00    +0.000 C 
ATOM     12  C7  UNL     1     163.421 147.326 168.627  0.00  0.00    +0.000 C 
ATOM     13  C8  UNL     1     163.336 148.331 167.522  0.00  0.00    +0.000 C 
ATOM     14  C9  UNL     1     161.899 148.805 167.627  0.00  0.00    +0.000 C 
BRANCH  14  15
ATOM     15  C10 UNL     1     161.321 148.903 166.249  0.00  0.00    +0.000 C 
BRANCH  15  16
ATOM     16  O3  UNL     1     160.077 149.541 166.363  0.00  0.00    +0.000 OA
ATOM     17  H12 UNL     1     159.984 149.950 167.280  0.00  0.00    +0.000 HD
ENDBRANCH  15  16
ENDBRANCH  14  15
ENDBRANCH   1  11
BRANCH   6  18
ATOM     18  O2  UNL     1     161.086 143.035 173.134  0.00  0.00    +0.000 OA
ATOM     19  H4  UNL     1     161.390 142.288 172.493  0.00  0.00    +0.000 HD
ENDBRANCH   6  18
TORSDOF 4
ENDMDL
MODEL 7
REMARK VINA RESULT:      -5.1      3.923      5.792
REMARK  Name = ./3D_structures\o56_MMV637306_3D.pdb
REMARK  4 active torsions:
REMARK  status: ('A' for Active; 'I' for Inactive)
REMARK    1  A    between atoms: C1_2  and  N1_3
REMARK    2  A    between atoms: C4_8  and  O2_12
REMARK    3  A    between atoms: C9_15  and  C10_16
REMARK    4  A    between atoms: C10_16  and  O3_17
REMARK                            x       y       z     vdW  Elec       q    Type
REMARK                         _______ _______ _______ _____ _____    ______ ____
ROOT
ATOM      1  N1  UNL     1     147.109 165.029 168.485  0.00  0.00    +0.000 N 
ATOM      2  C2  UNL     1     148.427 165.113 168.706  0.00  0.00    +0.000 A 
ATOM      3  N2  UNL     1     149.476 165.176 167.858  0.00  0.00    +0.000 NA
ATOM      4  C3  UNL     1     150.717 165.255 168.374  0.00  0.00    +0.000 C 
ATOM      5  N3  UNL     1     150.895 165.271 169.724  0.00  0.00    +0.000 NA
ATOM      6  C4  UNL     1     149.875 165.210 170.576  0.00  0.00    +0.000 C 
ATOM      7  C5  UNL     1     148.590 165.128 170.076  0.00  0.00    +0.000 A 
ATOM      8  N4  UNL     1     147.367 165.053 170.676  0.00  0.00    +0.000 NA
ATOM      9  C6  UNL     1     146.473 164.994 169.670  0.00  0.00    +0.000 A 
ENDROOT
BRANCH   1  11
ATOM     10  O1  UNL     1     146.153 166.250 166.704  0.00  0.00    +0.000 OA
ATOM     11  C1  UNL     1     146.476 164.985 167.185  0.00  0.00    +0.000 C 
ATOM     12  C7  UNL     1     145.087 164.368 167.371  0.00  0.00    +0.000 C 
ATOM     13  C8  UNL     1     144.298 164.926 166.229  0.00  0.00    +0.000 C 
ATOM     14  C9  UNL     1     145.199 166.039 165.727  0.00  0.00    +0.000 C 
BRANCH  14  15
ATOM     15  C10 UNL     1     144.360 167.244 165.434  0.00  0.00    +0.000 C 
BRANCH  15  16
ATOM     16  O3  UNL     1     145.141 168.374 165.718  0.00  0.00    +0.000 OA
ATOM     17  H12 UNL     1     145.660 168.227 166.569  0.00  0.00    +0.000 HD
ENDBRANCH  15  16
ENDBRANCH  14  15
ENDBRANCH   1  11
BRANCH   6  18
ATOM     18  O2  UNL     1     150.015 165.225 171.963  0.00  0.00    +0.000 OA
ATOM     19  H4  UNL     1     150.323 166.081 172.446  0.00  0.00    +0.000 HD
ENDBRANCH   6  18
TORSDOF 4
ENDMDL
MODEL 8
REMARK VINA RESULT:      -5.1      3.338      4.445
REMARK  Name = ./3D_structures\o56_MMV637306_3D.pdb
REMARK  4 active torsions:
REMARK  status: ('A' for Active; 'I' for Inactive)
REMARK    1  A    between atoms: C1_2  and  N1_3
REMARK    2  A    between atoms: C4_8  and  O2_12
REMARK    3  A    between atoms: C9_15  and  C10_16
REMARK    4  A    between atoms: C10_16  and  O3_17
REMARK                            x       y       z     vdW  Elec       q    Type
REMARK                         _______ _______ _______ _____ _____    ______ ____
ROOT
ATOM      1  N1  UNL     1     146.231 164.132 166.940  0.00  0.00    +0.000 N 
ATOM      2  C2  UNL     1     145.812 165.303 166.445  0.00  0.00    +0.000 A 
ATOM      3  N2  UNL     1     146.470 166.453 166.182  0.00  0.00    +0.000 NA
ATOM      4  C3  UNL     1     145.776 167.491 165.677  0.00  0.00    +0.000 C 
ATOM      5  N3  UNL     1     144.440 167.369 165.443  0.00  0.00    +0.000 NA
ATOM      6  C4  UNL     1     143.773 166.245 165.696  0.00  0.00    +0.000 C 
ATOM      7  C5  UNL     1     144.459 165.163 166.215  0.00  0.00    +0.000 A 
ATOM      8  N4  UNL     1     144.068 163.906 166.571  0.00  0.00    +0.000 NA
ATOM      9  C6  UNL     1     145.182 163.293 167.015  0.00  0.00    +0.000 A 
ENDROOT
BRANCH   1  11
ATOM     10  O1  UNL     1     147.916 162.486 167.115  0.00  0.00    +0.000 OA
ATOM     11  C1  UNL     1     147.590 163.822 167.329  0.00  0.00    +0.000 C 
ATOM     12  C7  UNL     1     147.662 163.911 168.856  0.00  0.00    +0.000 C 
ATOM     13  C8  UNL     1     148.796 163.001 169.209  0.00  0.00    +0.000 C 
ATOM     14  C9  UNL     1     149.020 162.246 167.911  0.00  0.00    +0.000 C 
BRANCH  14  15
ATOM     15  C10 UNL     1     149.232 160.798 168.226  0.00  0.00    +0.000 C 
BRANCH  15  16
ATOM     16  O3  UNL     1     149.730 160.725 169.536  0.00  0.00    +0.000 OA
ATOM     17  H12 UNL     1     150.040 159.787 169.734  0.00  0.00    +0.000 HD
ENDBRANCH  15  16
ENDBRANCH  14  15
ENDBRANCH   1  11
BRANCH   6  18
ATOM     18  O2  UNL     1     142.408 166.081 165.470  0.00  0.00    +0.000 OA
ATOM     19  H4  UNL     1     141.826 166.884 165.191  0.00  0.00    +0.000 HD
ENDBRANCH   6  18
TORSDOF 4
ENDMDL
MODEL 9
REMARK VINA RESULT:      -5.0      3.898      6.225
REMARK  Name = ./3D_structures\o56_MMV637306_3D.pdb
REMARK  4 active torsions:
REMARK  status: ('A' for Active; 'I' for Inactive)
REMARK    1  A    between atoms: C1_2  and  N1_3
REMARK    2  A    between atoms: C4_8  and  O2_12
REMARK    3  A    between atoms: C9_15  and  C10_16
REMARK    4  A    between atoms: C10_16  and  O3_17
REMARK                            x       y       z     vdW  Elec       q    Type
REMARK                         _______ _______ _______ _____ _____    ______ ____
ROOT
ATOM      1  N1  UNL     1     148.994 165.227 166.477  0.00  0.00    +0.000 N 
ATOM      2  C2  UNL     1     147.744 165.702 166.409  0.00  0.00    +0.000 A 
ATOM      3  N2  UNL     1     147.214 166.738 165.724  0.00  0.00    +0.000 NA
ATOM      4  C3  UNL     1     145.897 166.987 165.851  0.00  0.00    +0.000 C 
ATOM      5  N3  UNL     1     145.128 166.202 166.655  0.00  0.00    +0.000 NA
ATOM      6  C4  UNL     1     145.631 165.177 167.339  0.00  0.00    +0.000 C 
ATOM      7  C5  UNL     1     146.980 164.897 167.229  0.00  0.00    +0.000 A 
ATOM      8  N4  UNL     1     147.774 163.939 167.788  0.00  0.00    +0.000 NA
ATOM      9  C6  UNL     1     149.011 164.168 167.305  0.00  0.00    +0.000 A 
ENDROOT
BRANCH   1  11
ATOM     10  O1  UNL     1     150.659 164.878 164.839  0.00  0.00    +0.000 OA
ATOM     11  C1  UNL     1     150.137 165.768 165.773  0.00  0.00    +0.000 C 
ATOM     12  C7  UNL     1     151.290 165.866 166.776  0.00  0.00    +0.000 C 
ATOM     13  C8  UNL     1     152.512 165.788 165.916  0.00  0.00    +0.000 C 
ATOM     14  C9  UNL     1     151.944 165.320 164.589  0.00  0.00    +0.000 C 
BRANCH  14  15
ATOM     15  C10 UNL     1     152.845 164.267 164.023  0.00  0.00    +0.000 C 
BRANCH  15  16
ATOM     16  O3  UNL     1     152.027 163.298 163.423  0.00  0.00    +0.000 OA
ATOM     17  H12 UNL     1     151.474 162.833 164.126  0.00  0.00    +0.000 HD
ENDBRANCH  15  16
ENDBRANCH  14  15
ENDBRANCH   1  11
BRANCH   6  18
ATOM     18  O2  UNL     1     144.879 164.350 168.172  0.00  0.00    +0.000 OA
ATOM     19  H4  UNL     1     144.994 163.328 168.133  0.00  0.00    +0.000 HD
ENDBRANCH   6  18
TORSDOF 4
ENDMDL
