MODEL 1
REMARK VINA RESULT:      -6.1      0.000      0.000
REMARK  Name = ./3D_structures\o58_MMV002780_3D.pdb
REMARK  8 active torsions:
REMARK  status: ('A' for Active; 'I' for Inactive)
REMARK    1  A    between atoms: C2_4  and  C3_5
REMARK    2  A    between atoms: N1_6  and  C14_20
REMARK    3  A    between atoms: C10_13  and  O3_15
REMARK    4  A    between atoms: O3_15  and  C12_16
REMARK    5  A    between atoms: C18_24  and  O7_29
REMARK    6  A    between atoms: C19_25  and  O6_27
REMARK    7  A    between atoms: O6_27  and  C21_28
REMARK    8  A    between atoms: O7_29  and  C22_30
REMARK                            x       y       z     vdW  Elec       q    Type
REMARK                         _______ _______ _______ _____ _____    ______ ____
ROOT
ATOM      1  C3  UNL     1     146.603 161.924 167.123  0.00  0.00    +0.000 C 
ATOM      2  N1  UNL     1     146.811 162.071 168.612  0.00  0.00    +0.000 NA
ATOM      3  C4  UNL     1     148.220 162.417 168.763  0.00  0.00    +0.000 C 
ATOM      4  C5  UNL     1     148.748 163.247 167.619  0.00  0.00    +0.000 C 
ATOM      5  C6  UNL     1     147.644 164.053 167.004  0.00  0.00    +0.000 A 
ATOM      6  C7  UNL     1     147.775 165.373 166.774  0.00  0.00    +0.000 A 
ATOM      7  C8  UNL     1     146.716 166.070 166.215  0.00  0.00    +0.000 A 
ATOM      8  C9  UNL     1     145.561 165.390 165.913  0.00  0.00    +0.000 A 
ATOM      9  C10 UNL     1     145.465 164.014 166.167  0.00  0.00    +0.000 A 
ATOM     10  C11 UNL     1     146.470 163.298 166.710  0.00  0.00    +0.000 A 
ATOM     11  O4  UNL     1     144.694 166.311 165.382  0.00  0.00    +0.000 OA
ATOM     12  C13 UNL     1     145.154 167.598 165.739  0.00  0.00    +0.000 C 
ATOM     13  O5  UNL     1     146.549 167.399 165.868  0.00  0.00    +0.000 OA
ATOM     14  C14 UNL     1     145.937 163.075 169.132  0.00  0.00    +0.000 C 
ENDROOT
BRANCH   1  18
ATOM     15  O1  UNL     1     144.794 159.026 164.121  0.00  0.00    +0.000 OA
ATOM     16  C1  UNL     1     145.125 159.530 165.235  0.00  0.00    +0.000 C 
ATOM     17  O2  UNL     1     145.015 160.805 165.689  0.00  0.00    +0.000 OA
ATOM     18  C2  UNL     1     145.532 160.937 166.966  0.00  0.00    +0.000 C 
ATOM     19  C15 UNL     1     145.962 159.591 167.358  0.00  0.00    +0.000 A 
ATOM     20  C16 UNL     1     146.529 159.019 168.496  0.00  0.00    +0.000 A 
ATOM     21  C17 UNL     1     146.858 157.687 168.603  0.00  0.00    +0.000 A 
ATOM     22  C18 UNL     1     146.621 156.858 167.539  0.00  0.00    +0.000 A 
ATOM     23  C19 UNL     1     146.063 157.385 166.401  0.00  0.00    +0.000 A 
ATOM     24  C20 UNL     1     145.731 158.748 166.303  0.00  0.00    +0.000 A 
BRANCH  23  25
ATOM     25  O6  UNL     1     145.809 156.586 165.309  0.00  0.00    +0.000 OA
ATOM     26  C21 UNL     1     144.688 155.762 165.150  0.00  0.00    +0.000 C 
ENDBRANCH  23  25
BRANCH  22  27
ATOM     27  O7  UNL     1     146.942 155.524 167.622  0.00  0.00    +0.000 OA
ATOM     28  C22 UNL     1     146.920 154.885 168.882  0.00  0.00    +0.000 C 
ENDBRANCH  22  27
ENDBRANCH   1  18
BRANCH   9  29
ATOM     29  O3  UNL     1     144.277 163.438 165.833  0.00  0.00    +0.000 OA
ATOM     30  C12 UNL     1     143.173 163.639 166.736  0.00  0.00    +0.000 C 
ENDBRANCH   9  29
TORSDOF 4
ENDMDL
MODEL 2
REMARK VINA RESULT:      -6.1      1.999      7.911
REMARK  Name = ./3D_structures\o58_MMV002780_3D.pdb
REMARK  8 active torsions:
REMARK  status: ('A' for Active; 'I' for Inactive)
REMARK    1  A    between atoms: C2_4  and  C3_5
REMARK    2  A    between atoms: N1_6  and  C14_20
REMARK    3  A    between atoms: C10_13  and  O3_15
REMARK    4  A    between atoms: O3_15  and  C12_16
REMARK    5  A    between atoms: C18_24  and  O7_29
REMARK    6  A    between atoms: C19_25  and  O6_27
REMARK    7  A    between atoms: O6_27  and  C21_28
REMARK    8  A    between atoms: O7_29  and  C22_30
REMARK                            x       y       z     vdW  Elec       q    Type
REMARK                         _______ _______ _______ _____ _____    ______ ____
ROOT
ATOM      1  C3  UNL     1     145.939 159.857 166.731  0.00  0.00    +0.000 C 
ATOM      2  N1  UNL     1     144.697 159.656 165.895  0.00  0.00    +0.000 NA
ATOM      3  C4  UNL     1     145.177 159.089 164.639  0.00  0.00    +0.000 C 
ATOM      4  C5  UNL     1     146.385 158.204 164.816  0.00  0.00    +0.000 C 
ATOM      5  C6  UNL     1     146.390 157.592 166.185  0.00  0.00    +0.000 A 
ATOM      6  C7  UNL     1     146.578 156.272 166.369  0.00  0.00    +0.000 A 
ATOM      7  C8  UNL     1     146.559 155.761 167.657  0.00  0.00    +0.000 A 
ATOM      8  C9  UNL     1     146.348 156.619 168.708  0.00  0.00    +0.000 A 
ATOM      9  C10 UNL     1     146.158 157.989 168.474  0.00  0.00    +0.000 A 
ATOM     10  C11 UNL     1     146.168 158.528 167.239  0.00  0.00    +0.000 A 
ATOM     11  O4  UNL     1     146.377 155.855 169.848  0.00  0.00    +0.000 OA
ATOM     12  C13 UNL     1     146.192 154.506 169.472  0.00  0.00    +0.000 C 
ATOM     13  O5  UNL     1     146.715 154.479 168.158  0.00  0.00    +0.000 OA
ATOM     14  C14 UNL     1     143.782 158.795 166.577  0.00  0.00    +0.000 C 
ENDROOT
BRANCH   1  18
ATOM     15  O1  UNL     1     147.966 163.001 169.318  0.00  0.00    +0.000 OA
ATOM     16  C1  UNL     1     147.099 162.453 168.574  0.00  0.00    +0.000 C 
ATOM     17  O2  UNL     1     146.548 161.214 168.633  0.00  0.00    +0.000 OA
ATOM     18  C2  UNL     1     145.655 161.003 167.598  0.00  0.00    +0.000 C 
ATOM     19  C15 UNL     1     145.616 162.264 166.849  0.00  0.00    +0.000 A 
ATOM     20  C16 UNL     1     144.924 162.739 165.736  0.00  0.00    +0.000 A 
ATOM     21  C17 UNL     1     145.088 164.001 165.212  0.00  0.00    +0.000 A 
ATOM     22  C18 UNL     1     145.980 164.855 165.805  0.00  0.00    +0.000 A 
ATOM     23  C19 UNL     1     146.680 164.421 166.904  0.00  0.00    +0.000 A 
ATOM     24  C20 UNL     1     146.504 163.130 167.431  0.00  0.00    +0.000 A 
BRANCH  23  25
ATOM     25  O6  UNL     1     147.586 165.249 167.530  0.00  0.00    +0.000 OA
ATOM     26  C21 UNL     1     148.897 165.487 167.101  0.00  0.00    +0.000 C 
ENDBRANCH  23  25
BRANCH  22  27
ATOM     27  O7  UNL     1     146.161 166.120 165.300  0.00  0.00    +0.000 OA
ATOM     28  C22 UNL     1     145.268 167.149 165.674  0.00  0.00    +0.000 C 
ENDBRANCH  22  27
ENDBRANCH   1  18
BRANCH   9  29
ATOM     29  O3  UNL     1     145.955 158.750 169.585  0.00  0.00    +0.000 OA
ATOM     30  C12 UNL     1     144.657 158.675 170.204  0.00  0.00    +0.000 C 
ENDBRANCH   9  29
TORSDOF 4
ENDMDL
MODEL 3
REMARK VINA RESULT:      -6.0     11.219     12.975
REMARK  Name = ./3D_structures\o58_MMV002780_3D.pdb
REMARK  8 active torsions:
REMARK  status: ('A' for Active; 'I' for Inactive)
REMARK    1  A    between atoms: C2_4  and  C3_5
REMARK    2  A    between atoms: N1_6  and  C14_20
REMARK    3  A    between atoms: C10_13  and  O3_15
REMARK    4  A    between atoms: O3_15  and  C12_16
REMARK    5  A    between atoms: C18_24  and  O7_29
REMARK    6  A    between atoms: C19_25  and  O6_27
REMARK    7  A    between atoms: O6_27  and  C21_28
REMARK    8  A    between atoms: O7_29  and  C22_30
REMARK                            x       y       z     vdW  Elec       q    Type
REMARK                         _______ _______ _______ _____ _____    ______ ____
ROOT
ATOM      1  C3  UNL     1     157.381 158.311 168.886  0.00  0.00    +0.000 C 
ATOM      2  N1  UNL     1     155.919 158.104 168.566  0.00  0.00    +0.000 NA
ATOM      3  C4  UNL     1     155.452 157.137 169.553  0.00  0.00    +0.000 C 
ATOM      4  C5  UNL     1     156.148 157.272 170.884  0.00  0.00    +0.000 C 
ATOM      5  C6  UNL     1     156.605 158.684 171.096  0.00  0.00    +0.000 A 
ATOM      6  C7  UNL     1     156.344 159.348 172.238  0.00  0.00    +0.000 A 
ATOM      7  C8  UNL     1     156.779 160.657 172.372  0.00  0.00    +0.000 A 
ATOM      8  C9  UNL     1     157.464 161.237 171.333  0.00  0.00    +0.000 A 
ATOM      9  C10 UNL     1     157.716 160.511 170.160  0.00  0.00    +0.000 A 
ATOM     10  C11 UNL     1     157.310 159.237 169.987  0.00  0.00    +0.000 A 
ATOM     11  O4  UNL     1     157.768 162.515 171.731  0.00  0.00    +0.000 OA
ATOM     12  C13 UNL     1     156.926 162.844 172.817  0.00  0.00    +0.000 C 
ATOM     13  O5  UNL     1     156.667 161.580 173.398  0.00  0.00    +0.000 OA
ATOM     14  C14 UNL     1     155.221 159.349 168.637  0.00  0.00    +0.000 C 
ENDROOT
BRANCH   1  18
ATOM     15  O1  UNL     1     161.294 157.856 166.613  0.00  0.00    +0.000 OA
ATOM     16  C1  UNL     1     160.053 157.993 166.826  0.00  0.00    +0.000 C 
ATOM     17  O2  UNL     1     159.393 158.838 167.660  0.00  0.00    +0.000 OA
ATOM     18  C2  UNL     1     158.026 158.636 167.611  0.00  0.00    +0.000 C 
ATOM     19  C15 UNL     1     157.817 157.589 166.605  0.00  0.00    +0.000 A 
ATOM     20  C16 UNL     1     156.711 156.943 166.055  0.00  0.00    +0.000 A 
ATOM     21  C17 UNL     1     156.796 155.953 165.104  0.00  0.00    +0.000 A 
ATOM     22  C18 UNL     1     158.031 155.565 164.657  0.00  0.00    +0.000 A 
ATOM     23  C19 UNL     1     159.144 156.180 165.175  0.00  0.00    +0.000 A 
ATOM     24  C20 UNL     1     159.046 157.190 166.148  0.00  0.00    +0.000 A 
BRANCH  23  25
ATOM     25  O6  UNL     1     160.405 155.820 164.753  0.00  0.00    +0.000 OA
ATOM     26  C21 UNL     1     161.031 156.277 163.588  0.00  0.00    +0.000 C 
ENDBRANCH  23  25
BRANCH  22  27
ATOM     27  O7  UNL     1     158.141 154.578 163.707  0.00  0.00    +0.000 OA
ATOM     28  C22 UNL     1     157.563 154.777 162.434  0.00  0.00    +0.000 C 
ENDBRANCH  22  27
ENDBRANCH   1  18
BRANCH   9  29
ATOM     29  O3  UNL     1     158.401 161.181 169.192  0.00  0.00    +0.000 OA
ATOM     30  C12 UNL     1     157.663 162.142 168.413  0.00  0.00    +0.000 C 
ENDBRANCH   9  29
TORSDOF 4
ENDMDL
MODEL 4
REMARK VINA RESULT:      -6.0      4.335      7.947
REMARK  Name = ./3D_structures\o58_MMV002780_3D.pdb
REMARK  8 active torsions:
REMARK  status: ('A' for Active; 'I' for Inactive)
REMARK    1  A    between atoms: C2_4  and  C3_5
REMARK    2  A    between atoms: N1_6  and  C14_20
REMARK    3  A    between atoms: C10_13  and  O3_15
REMARK    4  A    between atoms: O3_15  and  C12_16
REMARK    5  A    between atoms: C18_24  and  O7_29
REMARK    6  A    between atoms: C19_25  and  O6_27
REMARK    7  A    between atoms: O6_27  and  C21_28
REMARK    8  A    between atoms: O7_29  and  C22_30
REMARK                            x       y       z     vdW  Elec       q    Type
REMARK                         _______ _______ _______ _____ _____    ______ ____
ROOT
ATOM      1  C3  UNL     1     149.968 163.949 169.327  0.00  0.00    +0.000 C 
ATOM      2  N1  UNL     1     150.878 164.541 168.277  0.00  0.00    +0.000 NA
ATOM      3  C4  UNL     1     151.393 165.768 168.874  0.00  0.00    +0.000 C 
ATOM      4  C5  UNL     1     151.569 165.667 170.369  0.00  0.00    +0.000 C 
ATOM      5  C6  UNL     1     151.828 164.245 170.771  0.00  0.00    +0.000 A 
ATOM      6  C7  UNL     1     152.848 163.915 171.584  0.00  0.00    +0.000 A 
ATOM      7  C8  UNL     1     153.047 162.583 171.910  0.00  0.00    +0.000 A 
ATOM      8  C9  UNL     1     152.196 161.639 171.392  0.00  0.00    +0.000 A 
ATOM      9  C10 UNL     1     151.143 162.024 170.548  0.00  0.00    +0.000 A 
ATOM     10  C11 UNL     1     150.914 163.308 170.205  0.00  0.00    +0.000 A 
ATOM     11  O4  UNL     1     152.620 160.425 171.871  0.00  0.00    +0.000 OA
ATOM     12  C13 UNL     1     153.947 160.579 172.331  0.00  0.00    +0.000 C 
ATOM     13  O5  UNL     1     153.986 161.944 172.702  0.00  0.00    +0.000 OA
ATOM     14  C14 UNL     1     151.911 163.612 167.944  0.00  0.00    +0.000 C 
ENDROOT
BRANCH   1  18
ATOM     15  O1  UNL     1     145.723 162.362 169.703  0.00  0.00    +0.000 OA
ATOM     16  C1  UNL     1     146.783 162.805 169.169  0.00  0.00    +0.000 C 
ATOM     17  O2  UNL     1     148.078 162.447 169.360  0.00  0.00    +0.000 OA
ATOM     18  C2  UNL     1     148.937 163.213 168.592  0.00  0.00    +0.000 C 
ATOM     19  C15 UNL     1     148.075 164.106 167.809  0.00  0.00    +0.000 A 
ATOM     20  C16 UNL     1     148.278 165.089 166.842  0.00  0.00    +0.000 A 
ATOM     21  C17 UNL     1     147.263 165.811 166.258  0.00  0.00    +0.000 A 
ATOM     22  C18 UNL     1     145.970 165.562 166.635  0.00  0.00    +0.000 A 
ATOM     23  C19 UNL     1     145.731 164.599 167.584  0.00  0.00    +0.000 A 
ATOM     24  C20 UNL     1     146.776 163.868 168.175  0.00  0.00    +0.000 A 
BRANCH  23  25
ATOM     25  O6  UNL     1     144.446 164.319 167.991  0.00  0.00    +0.000 OA
ATOM     26  C21 UNL     1     143.556 163.461 167.333  0.00  0.00    +0.000 C 
ENDBRANCH  23  25
BRANCH  22  27
ATOM     27  O7  UNL     1     144.939 166.271 166.065  0.00  0.00    +0.000 OA
ATOM     28  C22 UNL     1     145.152 167.613 165.680  0.00  0.00    +0.000 C 
ENDBRANCH  22  27
ENDBRANCH   1  18
BRANCH   9  29
ATOM     29  O3  UNL     1     150.359 161.010 170.088  0.00  0.00    +0.000 OA
ATOM     30  C12 UNL     1     150.903 160.187 169.039  0.00  0.00    +0.000 C 
ENDBRANCH   9  29
TORSDOF 4
ENDMDL
MODEL 5
REMARK VINA RESULT:      -6.0      4.845      7.594
REMARK  Name = ./3D_structures\o58_MMV002780_3D.pdb
REMARK  8 active torsions:
REMARK  status: ('A' for Active; 'I' for Inactive)
REMARK    1  A    between atoms: C2_4  and  C3_5
REMARK    2  A    between atoms: N1_6  and  C14_20
REMARK    3  A    between atoms: C10_13  and  O3_15
REMARK    4  A    between atoms: O3_15  and  C12_16
REMARK    5  A    between atoms: C18_24  and  O7_29
REMARK    6  A    between atoms: C19_25  and  O6_27
REMARK    7  A    between atoms: O6_27  and  C21_28
REMARK    8  A    between atoms: O7_29  and  C22_30
REMARK                            x       y       z     vdW  Elec       q    Type
REMARK                         _______ _______ _______ _____ _____    ______ ____
ROOT
ATOM      1  C3  UNL     1     151.141 164.213 165.706  0.00  0.00    +0.000 C 
ATOM      2  N1  UNL     1     151.683 163.072 166.534  0.00  0.00    +0.000 NA
ATOM      3  C4  UNL     1     151.782 161.949 165.608  0.00  0.00    +0.000 C 
ATOM      4  C5  UNL     1     152.116 162.375 164.201  0.00  0.00    +0.000 C 
ATOM      5  C6  UNL     1     152.897 163.655 164.211  0.00  0.00    +0.000 A 
ATOM      6  C7  UNL     1     154.037 163.794 163.510  0.00  0.00    +0.000 A 
ATOM      7  C8  UNL     1     154.724 164.996 163.570  0.00  0.00    +0.000 A 
ATOM      8  C9  UNL     1     154.219 166.010 164.345  0.00  0.00    +0.000 A 
ATOM      9  C10 UNL     1     153.026 165.826 165.060  0.00  0.00    +0.000 A 
ATOM     10  C11 UNL     1     152.327 164.674 165.031  0.00  0.00    +0.000 A 
ATOM     11  O4  UNL     1     155.088 167.066 164.221  0.00  0.00    +0.000 OA
ATOM     12  C13 UNL     1     156.310 166.567 163.718  0.00  0.00    +0.000 C 
ATOM     13  O5  UNL     1     155.896 165.434 162.978  0.00  0.00    +0.000 OA
ATOM     14  C14 UNL     1     152.943 163.434 167.101  0.00  0.00    +0.000 C 
ENDROOT
BRANCH   1  18
ATOM     15  O1  UNL     1     147.459 166.872 165.949  0.00  0.00    +0.000 OA
ATOM     16  C1  UNL     1     148.384 166.088 166.314  0.00  0.00    +0.000 C 
ATOM     17  O2  UNL     1     149.719 166.131 166.070  0.00  0.00    +0.000 OA
ATOM     18  C2  UNL     1     150.374 165.050 166.633  0.00  0.00    +0.000 C 
ATOM     19  C15 UNL     1     149.340 164.286 167.339  0.00  0.00    +0.000 A 
ATOM     20  C16 UNL     1     149.315 163.132 168.120  0.00  0.00    +0.000 A 
ATOM     21  C17 UNL     1     148.170 162.604 168.671  0.00  0.00    +0.000 A 
ATOM     22  C18 UNL     1     146.975 163.235 168.451  0.00  0.00    +0.000 A 
ATOM     23  C19 UNL     1     146.961 164.376 167.687  0.00  0.00    +0.000 A 
ATOM     24  C20 UNL     1     148.137 164.906 167.128  0.00  0.00    +0.000 A 
BRANCH  23  25
ATOM     25  O6  UNL     1     145.781 165.041 167.441  0.00  0.00    +0.000 OA
ATOM     26  C21 UNL     1     144.853 164.708 166.447  0.00  0.00    +0.000 C 
ENDBRANCH  23  25
BRANCH  22  27
ATOM     27  O7  UNL     1     145.818 162.727 168.991  0.00  0.00    +0.000 OA
ATOM     28  C22 UNL     1     145.276 161.533 168.465  0.00  0.00    +0.000 C 
ENDBRANCH  22  27
ENDBRANCH   1  18
BRANCH   9  29
ATOM     29  O3  UNL     1     152.615 166.894 165.798  0.00  0.00    +0.000 OA
ATOM     30  C12 UNL     1     153.296 167.131 167.045  0.00  0.00    +0.000 C 
ENDBRANCH   9  29
TORSDOF 4
ENDMDL
MODEL 6
REMARK VINA RESULT:      -5.9      2.965      6.555
REMARK  Name = ./3D_structures\o58_MMV002780_3D.pdb
REMARK  8 active torsions:
REMARK  status: ('A' for Active; 'I' for Inactive)
REMARK    1  A    between atoms: C2_4  and  C3_5
REMARK    2  A    between atoms: N1_6  and  C14_20
REMARK    3  A    between atoms: C10_13  and  O3_15
REMARK    4  A    between atoms: O3_15  and  C12_16
REMARK    5  A    between atoms: C18_24  and  O7_29
REMARK    6  A    between atoms: C19_25  and  O6_27
REMARK    7  A    between atoms: O6_27  and  C21_28
REMARK    8  A    between atoms: O7_29  and  C22_30
REMARK                            x       y       z     vdW  Elec       q    Type
REMARK                         _______ _______ _______ _____ _____    ______ ____
ROOT
ATOM      1  C3  UNL     1     145.809 163.135 166.616  0.00  0.00    +0.000 C 
ATOM      2  N1  UNL     1     144.746 163.915 167.353  0.00  0.00    +0.000 NA
ATOM      3  C4  UNL     1     144.504 165.093 166.529  0.00  0.00    +0.000 C 
ATOM      4  C5  UNL     1     144.666 164.823 165.054  0.00  0.00    +0.000 C 
ATOM      5  C6  UNL     1     144.368 163.386 164.748  0.00  0.00    +0.000 A 
ATOM      6  C7  UNL     1     143.533 163.033 163.753  0.00  0.00    +0.000 A 
ATOM      7  C8  UNL     1     143.284 161.688 163.526  0.00  0.00    +0.000 A 
ATOM      8  C9  UNL     1     143.897 160.756 164.326  0.00  0.00    +0.000 A 
ATOM      9  C10 UNL     1     144.762 161.165 165.352  0.00  0.00    +0.000 A 
ATOM     10  C11 UNL     1     145.031 162.461 165.608  0.00  0.00    +0.000 A 
ATOM     11  O4  UNL     1     143.476 159.526 163.886  0.00  0.00    +0.000 OA
ATOM     12  C13 UNL     1     142.312 159.717 163.110  0.00  0.00    +0.000 C 
ATOM     13  O5  UNL     1     142.493 161.026 162.603  0.00  0.00    +0.000 OA
ATOM     14  C14 UNL     1     143.578 163.109 167.524  0.00  0.00    +0.000 C 
ENDROOT
BRANCH   1  18
ATOM     15  O1  UNL     1     149.977 161.605 167.605  0.00  0.00    +0.000 OA
ATOM     16  C1  UNL     1     148.799 162.039 167.776  0.00  0.00    +0.000 C 
ATOM     17  O2  UNL     1     147.631 161.660 167.196  0.00  0.00    +0.000 OA
ATOM     18  C2  UNL     1     146.568 162.422 167.647  0.00  0.00    +0.000 C 
ATOM     19  C15 UNL     1     147.134 163.336 168.646  0.00  0.00    +0.000 A 
ATOM     20  C16 UNL     1     146.630 164.327 169.486  0.00  0.00    +0.000 A 
ATOM     21  C17 UNL     1     147.405 165.070 170.347  0.00  0.00    +0.000 A 
ATOM     22  C18 UNL     1     148.754 164.836 170.395  0.00  0.00    +0.000 A 
ATOM     23  C19 UNL     1     149.286 163.866 169.582  0.00  0.00    +0.000 A 
ATOM     24  C20 UNL     1     148.485 163.113 168.706  0.00  0.00    +0.000 A 
BRANCH  23  25
ATOM     25  O6  UNL     1     150.637 163.599 169.600  0.00  0.00    +0.000 OA
ATOM     26  C21 UNL     1     151.614 164.314 168.896  0.00  0.00    +0.000 C 
ENDBRANCH  23  25
BRANCH  22  27
ATOM     27  O7  UNL     1     149.548 165.565 171.247  0.00  0.00    +0.000 OA
ATOM     28  C22 UNL     1     149.798 166.926 170.964  0.00  0.00    +0.000 C 
ENDBRANCH  22  27
ENDBRANCH   1  18
BRANCH   9  29
ATOM     29  O3  UNL     1     145.316 160.161 166.087  0.00  0.00    +0.000 OA
ATOM     30  C12 UNL     1     144.478 159.533 167.076  0.00  0.00    +0.000 C 
ENDBRANCH   9  29
TORSDOF 4
ENDMDL
MODEL 7
REMARK VINA RESULT:      -5.9      6.276      7.938
REMARK  Name = ./3D_structures\o58_MMV002780_3D.pdb
REMARK  8 active torsions:
REMARK  status: ('A' for Active; 'I' for Inactive)
REMARK    1  A    between atoms: C2_4  and  C3_5
REMARK    2  A    between atoms: N1_6  and  C14_20
REMARK    3  A    between atoms: C10_13  and  O3_15
REMARK    4  A    between atoms: O3_15  and  C12_16
REMARK    5  A    between atoms: C18_24  and  O7_29
REMARK    6  A    between atoms: C19_25  and  O6_27
REMARK    7  A    between atoms: O6_27  and  C21_28
REMARK    8  A    between atoms: O7_29  and  C22_30
REMARK                            x       y       z     vdW  Elec       q    Type
REMARK                         _______ _______ _______ _____ _____    ______ ____
ROOT
ATOM      1  C3  UNL     1     151.661 161.481 168.708  0.00  0.00    +0.000 C 
ATOM      2  N1  UNL     1     151.403 161.745 167.244  0.00  0.00    +0.000 NA
ATOM      3  C4  UNL     1     150.060 161.230 167.000  0.00  0.00    +0.000 C 
ATOM      4  C5  UNL     1     149.148 161.377 168.192  0.00  0.00    +0.000 C 
ATOM      5  C6  UNL     1     149.566 162.547 169.031  0.00  0.00    +0.000 A 
ATOM      6  C7  UNL     1     148.684 163.478 169.438  0.00  0.00    +0.000 A 
ATOM      7  C8  UNL     1     149.131 164.545 170.200  0.00  0.00    +0.000 A 
ATOM      8  C9  UNL     1     150.465 164.620 170.517  0.00  0.00    +0.000 A 
ATOM      9  C10 UNL     1     151.353 163.629 170.075  0.00  0.00    +0.000 A 
ATOM     10  C11 UNL     1     150.961 162.576 169.331  0.00  0.00    +0.000 A 
ATOM     11  O4  UNL     1     150.624 165.760 171.265  0.00  0.00    +0.000 OA
ATOM     12  C13 UNL     1     149.493 166.580 171.056  0.00  0.00    +0.000 C 
ATOM     13  O5  UNL     1     148.483 165.636 170.754  0.00  0.00    +0.000 OA
ATOM     14  C14 UNL     1     151.517 163.143 166.971  0.00  0.00    +0.000 C 
ENDROOT
BRANCH   1  18
ATOM     15  O1  UNL     1     154.801 159.150 171.032  0.00  0.00    +0.000 OA
ATOM     16  C1  UNL     1     154.255 159.787 170.082  0.00  0.00    +0.000 C 
ATOM     17  O2  UNL     1     153.571 160.960 170.091  0.00  0.00    +0.000 OA
ATOM     18  C2  UNL     1     153.109 161.290 168.830  0.00  0.00    +0.000 C 
ATOM     19  C15 UNL     1     153.601 160.231 167.941  0.00  0.00    +0.000 A 
ATOM     20  C16 UNL     1     153.526 159.964 166.575  0.00  0.00    +0.000 A 
ATOM     21  C17 UNL     1     154.083 158.856 165.978  0.00  0.00    +0.000 A 
ATOM     22  C18 UNL     1     154.754 157.951 166.756  0.00  0.00    +0.000 A 
ATOM     23  C19 UNL     1     154.849 158.181 168.107  0.00  0.00    +0.000 A 
ATOM     24  C20 UNL     1     154.276 159.316 168.706  0.00  0.00    +0.000 A 
BRANCH  23  25
ATOM     25  O6  UNL     1     155.516 157.296 168.924  0.00  0.00    +0.000 OA
ATOM     26  C21 UNL     1     156.899 157.276 169.141  0.00  0.00    +0.000 C 
ENDBRANCH  23  25
BRANCH  22  27
ATOM     27  O7  UNL     1     155.319 156.836 166.183  0.00  0.00    +0.000 OA
ATOM     28  C22 UNL     1     156.532 156.964 165.472  0.00  0.00    +0.000 C 
ENDBRANCH  22  27
ENDBRANCH   1  18
BRANCH   9  29
ATOM     29  O3  UNL     1     152.653 163.800 170.443  0.00  0.00    +0.000 OA
ATOM     30  C12 UNL     1     153.416 164.782 169.715  0.00  0.00    +0.000 C 
ENDBRANCH   9  29
TORSDOF 4
ENDMDL
MODEL 8
REMARK VINA RESULT:      -5.9      9.447     11.265
REMARK  Name = ./3D_structures\o58_MMV002780_3D.pdb
REMARK  8 active torsions:
REMARK  status: ('A' for Active; 'I' for Inactive)
REMARK    1  A    between atoms: C2_4  and  C3_5
REMARK    2  A    between atoms: N1_6  and  C14_20
REMARK    3  A    between atoms: C10_13  and  O3_15
REMARK    4  A    between atoms: O3_15  and  C12_16
REMARK    5  A    between atoms: C18_24  and  O7_29
REMARK    6  A    between atoms: C19_25  and  O6_27
REMARK    7  A    between atoms: O6_27  and  C21_28
REMARK    8  A    between atoms: O7_29  and  C22_30
REMARK                            x       y       z     vdW  Elec       q    Type
REMARK                         _______ _______ _______ _____ _____    ______ ____
ROOT
ATOM      1  C3  UNL     1     155.979 159.084 169.229  0.00  0.00    +0.000 C 
ATOM      2  N1  UNL     1     156.691 157.888 169.815  0.00  0.00    +0.000 NA
ATOM      3  C4  UNL     1     157.784 158.450 170.602  0.00  0.00    +0.000 C 
ATOM      4  C5  UNL     1     157.438 159.779 171.225  0.00  0.00    +0.000 C 
ATOM      5  C6  UNL     1     155.961 159.878 171.465  0.00  0.00    +0.000 A 
ATOM      6  C7  UNL     1     155.462 160.265 172.653  0.00  0.00    +0.000 A 
ATOM      7  C8  UNL     1     154.087 160.324 172.821  0.00  0.00    +0.000 A 
ATOM      8  C9  UNL     1     153.276 159.984 171.767  0.00  0.00    +0.000 A 
ATOM      9  C10 UNL     1     153.836 159.586 170.543  0.00  0.00    +0.000 A 
ATOM     10  C11 UNL     1     155.166 159.514 170.338  0.00  0.00    +0.000 A 
ATOM     11  O4  UNL     1     151.984 160.129 172.206  0.00  0.00    +0.000 OA
ATOM     12  C13 UNL     1     152.005 160.153 173.618  0.00  0.00    +0.000 C 
ATOM     13  O5  UNL     1     153.290 160.675 173.896  0.00  0.00    +0.000 OA
ATOM     14  C14 UNL     1     155.782 157.116 170.602  0.00  0.00    +0.000 C 
ENDROOT
BRANCH   1  18
ATOM     15  O1  UNL     1     155.057 160.473 164.997  0.00  0.00    +0.000 OA
ATOM     16  C1  UNL     1     155.337 159.697 165.958  0.00  0.00    +0.000 C 
ATOM     17  O2  UNL     1     154.784 159.594 167.193  0.00  0.00    +0.000 OA
ATOM     18  C2  UNL     1     155.415 158.628 167.956  0.00  0.00    +0.000 C 
ATOM     19  C15 UNL     1     156.435 158.040 167.080  0.00  0.00    +0.000 A 
ATOM     20  C16 UNL     1     157.383 157.025 167.199  0.00  0.00    +0.000 A 
ATOM     21  C17 UNL     1     158.255 156.669 166.196  0.00  0.00    +0.000 A 
ATOM     22  C18 UNL     1     158.205 157.341 165.004  0.00  0.00    +0.000 A 
ATOM     23  C19 UNL     1     157.283 158.347 164.850  0.00  0.00    +0.000 A 
ATOM     24  C20 UNL     1     156.396 158.702 165.881  0.00  0.00    +0.000 A 
BRANCH  23  25
ATOM     25  O6  UNL     1     157.199 159.046 163.667  0.00  0.00    +0.000 OA
ATOM     26  C21 UNL     1     158.003 160.135 163.309  0.00  0.00    +0.000 C 
ENDBRANCH  23  25
BRANCH  22  27
ATOM     27  O7  UNL     1     159.067 157.004 163.987  0.00  0.00    +0.000 OA
ATOM     28  C22 UNL     1     159.901 155.874 164.135  0.00  0.00    +0.000 C 
ENDBRANCH  22  27
ENDBRANCH   1  18
BRANCH   9  29
ATOM     29  O3  UNL     1     152.943 159.269 169.565  0.00  0.00    +0.000 OA
ATOM     30  C12 UNL     1     152.260 158.006 169.685  0.00  0.00    +0.000 C 
ENDBRANCH   9  29
TORSDOF 4
ENDMDL
MODEL 9
REMARK VINA RESULT:      -5.8      4.192      5.819
REMARK  Name = ./3D_structures\o58_MMV002780_3D.pdb
REMARK  8 active torsions:
REMARK  status: ('A' for Active; 'I' for Inactive)
REMARK    1  A    between atoms: C2_4  and  C3_5
REMARK    2  A    between atoms: N1_6  and  C14_20
REMARK    3  A    between atoms: C10_13  and  O3_15
REMARK    4  A    between atoms: O3_15  and  C12_16
REMARK    5  A    between atoms: C18_24  and  O7_29
REMARK    6  A    between atoms: C19_25  and  O6_27
REMARK    7  A    between atoms: O6_27  and  C21_28
REMARK    8  A    between atoms: O7_29  and  C22_30
REMARK                            x       y       z     vdW  Elec       q    Type
REMARK                         _______ _______ _______ _____ _____    ______ ____
ROOT
ATOM      1  C3  UNL     1     150.130 163.702 168.525  0.00  0.00    +0.000 C 
ATOM      2  N1  UNL     1     150.836 164.829 169.241  0.00  0.00    +0.000 NA
ATOM      3  C4  UNL     1     151.748 165.390 168.250  0.00  0.00    +0.000 C 
ATOM      4  C5  UNL     1     151.208 165.317 166.844  0.00  0.00    +0.000 C 
ATOM      5  C6  UNL     1     149.708 165.335 166.857  0.00  0.00    +0.000 A 
ATOM      6  C7  UNL     1     149.004 166.168 166.069  0.00  0.00    +0.000 A 
ATOM      7  C8  UNL     1     147.620 166.151 166.134  0.00  0.00    +0.000 A 
ATOM      8  C9  UNL     1     147.009 165.283 167.004  0.00  0.00    +0.000 A 
ATOM      9  C10 UNL     1     147.778 164.429 167.808  0.00  0.00    +0.000 A 
ATOM     10  C11 UNL     1     149.126 164.414 167.777  0.00  0.00    +0.000 A 
ATOM     11  O4  UNL     1     145.657 165.477 166.863  0.00  0.00    +0.000 OA
ATOM     12  C13 UNL     1     145.460 166.724 166.230  0.00  0.00    +0.000 C 
ATOM     13  O5  UNL     1     146.643 166.870 165.467  0.00  0.00    +0.000 OA
ATOM     14  C14 UNL     1     149.882 165.781 169.716  0.00  0.00    +0.000 C 
ENDROOT
BRANCH   1  18
ATOM     15  O1  UNL     1     149.567 159.238 169.190  0.00  0.00    +0.000 OA
ATOM     16  C1  UNL     1     149.830 160.452 169.438  0.00  0.00    +0.000 C 
ATOM     17  O2  UNL     1     149.144 161.581 169.124  0.00  0.00    +0.000 OA
ATOM     18  C2  UNL     1     149.804 162.716 169.559  0.00  0.00    +0.000 C 
ATOM     19  C15 UNL     1     151.001 162.233 170.256  0.00  0.00    +0.000 A 
ATOM     20  C16 UNL     1     152.062 162.825 170.940  0.00  0.00    +0.000 A 
ATOM     21  C17 UNL     1     153.097 162.119 171.509  0.00  0.00    +0.000 A 
ATOM     22  C18 UNL     1     153.104 160.753 171.407  0.00  0.00    +0.000 A 
ATOM     23  C19 UNL     1     152.074 160.135 170.741  0.00  0.00    +0.000 A 
ATOM     24  C20 UNL     1     151.022 160.865 170.164  0.00  0.00    +0.000 A 
BRANCH  23  25
ATOM     25  O6  UNL     1     152.043 158.763 170.617  0.00  0.00    +0.000 OA
ATOM     26  C21 UNL     1     152.743 158.020 169.659  0.00  0.00    +0.000 C 
ENDBRANCH  23  25
BRANCH  22  27
ATOM     27  O7  UNL     1     154.128 160.027 171.967  0.00  0.00    +0.000 OA
ATOM     28  C22 UNL     1     155.406 160.060 171.368  0.00  0.00    +0.000 C 
ENDBRANCH  22  27
ENDBRANCH   1  18
BRANCH   9  29
ATOM     29  O3  UNL     1     147.072 163.610 168.636  0.00  0.00    +0.000 OA
ATOM     30  C12 UNL     1     146.537 164.196 169.838  0.00  0.00    +0.000 C 
ENDBRANCH   9  29
TORSDOF 4
ENDMDL
