MODEL 1
REMARK VINA RESULT:      -5.9      0.000      0.000
REMARK  Name = ./3D_structures\o59_MMV1580801_3D.pdb
REMARK  5 active torsions:
REMARK  status: ('A' for Active; 'I' for Inactive)
REMARK    1  A    between atoms: C4_5  and  C5_6
REMARK    2  A    between atoms: C11_12  and  C17_19
REMARK    3  A    between atoms: C12_13  and  C13_14
REMARK    4  A    between atoms: C17_19  and  C18_20
REMARK    5  A    between atoms: C18_20  and  O2_22
REMARK                            x       y       z     vdW  Elec       q    Type
REMARK                         _______ _______ _______ _____ _____    ______ ____
ROOT
ATOM      1 CL1  UNL     1     160.486 163.043 170.223  0.00  0.00    +0.000 Cl
ATOM      2  C1  UNL     1     160.171 161.667 169.194  0.00  0.00    +0.000 A 
ATOM      3  C2  UNL     1     159.136 160.780 169.421  0.00  0.00    +0.000 A 
ATOM      4  C3  UNL     1     158.889 159.690 168.603  0.00  0.00    +0.000 A 
ATOM      5  C4  UNL     1     157.840 158.806 168.847  0.00  0.00    +0.000 A 
ATOM      6  C11 UNL     1     157.590 157.718 168.034  0.00  0.00    +0.000 A 
ATOM      7  C12 UNL     1     158.438 157.539 166.948  0.00  0.00    +0.000 A 
ATOM      8  C13 UNL     1     158.161 156.372 166.087  0.00  0.00    +0.000 C 
ATOM      9  N1  UNL     1     159.446 158.403 166.729  0.00  0.00    +0.000 NA
ATOM     10  C14 UNL     1     159.698 159.463 167.512  0.00  0.00    +0.000 A 
ATOM     11  C15 UNL     1     160.738 160.337 167.265  0.00  0.00    +0.000 A 
ATOM     12  C16 UNL     1     160.971 161.424 168.097  0.00  0.00    +0.000 A 
ENDROOT
BRANCH   5  13
ATOM     13  C5  UNL     1     157.027 159.119 170.026  0.00  0.00    +0.000 A 
ATOM     14  C6  UNL     1     157.216 158.593 171.264  0.00  0.00    +0.000 A 
ATOM     15  C7  UNL     1     156.384 158.962 172.308  0.00  0.00    +0.000 A 
ATOM     16  C8  UNL     1     155.346 159.862 172.147  0.00  0.00    +0.000 A 
ATOM     17  C9  UNL     1     155.154 160.396 170.890  0.00  0.00    +0.000 A 
ATOM     18  C10 UNL     1     155.984 160.027 169.853  0.00  0.00    +0.000 A 
ENDBRANCH   5  13
BRANCH   6  19
ATOM     19  C17 UNL     1     156.475 156.843 168.354  0.00  0.00    +0.000 C 
BRANCH  19  20
ATOM     20  C18 UNL     1     155.165 157.257 167.916  0.00  0.00    +0.000 C 
ATOM     21  O1  UNL     1     155.025 158.025 166.942  0.00  0.00    +0.000 OA
BRANCH  20  22
ATOM     22  O2  UNL     1     154.011 156.833 168.542  0.00  0.00    +0.000 OA
ATOM     23  H14 UNL     1     153.726 157.067 169.471  0.00  0.00    +0.000 HD
ENDBRANCH  20  22
ENDBRANCH  19  20
ENDBRANCH   6  19
TORSDOF 4
ENDMDL
MODEL 2
REMARK VINA RESULT:      -5.9      0.675      1.376
REMARK  Name = ./3D_structures\o59_MMV1580801_3D.pdb
REMARK  5 active torsions:
REMARK  status: ('A' for Active; 'I' for Inactive)
REMARK    1  A    between atoms: C4_5  and  C5_6
REMARK    2  A    between atoms: C11_12  and  C17_19
REMARK    3  A    between atoms: C12_13  and  C13_14
REMARK    4  A    between atoms: C17_19  and  C18_20
REMARK    5  A    between atoms: C18_20  and  O2_22
REMARK                            x       y       z     vdW  Elec       q    Type
REMARK                         _______ _______ _______ _____ _____    ______ ____
ROOT
ATOM      1 CL1  UNL     1     160.596 163.030 170.168  0.00  0.00    +0.000 Cl
ATOM      2  C1  UNL     1     160.416 161.683 169.071  0.00  0.00    +0.000 A 
ATOM      3  C2  UNL     1     159.384 160.769 169.166  0.00  0.00    +0.000 A 
ATOM      4  C3  UNL     1     159.244 159.702 168.294  0.00  0.00    +0.000 A 
ATOM      5  C4  UNL     1     158.196 158.790 168.404  0.00  0.00    +0.000 A 
ATOM      6  C11 UNL     1     158.053 157.725 167.536  0.00  0.00    +0.000 A 
ATOM      7  C12 UNL     1     159.009 157.598 166.537  0.00  0.00    +0.000 A 
ATOM      8  C13 UNL     1     158.846 156.456 165.617  0.00  0.00    +0.000 C 
ATOM      9  N1  UNL     1     160.014 158.489 166.447  0.00  0.00    +0.000 NA
ATOM     10  C14 UNL     1     160.163 159.527 167.284  0.00  0.00    +0.000 A 
ATOM     11  C15 UNL     1     161.203 160.428 167.169  0.00  0.00    +0.000 A 
ATOM     12  C16 UNL     1     161.328 161.491 168.053  0.00  0.00    +0.000 A 
ENDROOT
BRANCH   5  13
ATOM     13  C5  UNL     1     157.263 159.049 169.504  0.00  0.00    +0.000 A 
ATOM     14  C6  UNL     1     156.193 159.882 169.437  0.00  0.00    +0.000 A 
ATOM     15  C7  UNL     1     155.376 160.053 170.542  0.00  0.00    +0.000 A 
ATOM     16  C8  UNL     1     155.603 159.398 171.739  0.00  0.00    +0.000 A 
ATOM     17  C9  UNL     1     156.690 158.552 171.808  0.00  0.00    +0.000 A 
ATOM     18  C10 UNL     1     157.500 158.385 170.706  0.00  0.00    +0.000 A 
ENDBRANCH   5  13
BRANCH   6  19
ATOM     19  C17 UNL     1     156.931 156.818 167.716  0.00  0.00    +0.000 C 
BRANCH  19  20
ATOM     20  C18 UNL     1     155.674 157.200 167.121  0.00  0.00    +0.000 C 
ATOM     21  O1  UNL     1     154.612 157.149 167.774  0.00  0.00    +0.000 OA
BRANCH  20  22
ATOM     22  O2  UNL     1     155.580 157.636 165.816  0.00  0.00    +0.000 OA
ATOM     23  H14 UNL     1     155.784 157.097 165.000  0.00  0.00    +0.000 HD
ENDBRANCH  20  22
ENDBRANCH  19  20
ENDBRANCH   6  19
TORSDOF 4
ENDMDL
MODEL 3
REMARK VINA RESULT:      -5.6      3.077      4.371
REMARK  Name = ./3D_structures\o59_MMV1580801_3D.pdb
REMARK  5 active torsions:
REMARK  status: ('A' for Active; 'I' for Inactive)
REMARK    1  A    between atoms: C4_5  and  C5_6
REMARK    2  A    between atoms: C11_12  and  C17_19
REMARK    3  A    between atoms: C12_13  and  C13_14
REMARK    4  A    between atoms: C17_19  and  C18_20
REMARK    5  A    between atoms: C18_20  and  O2_22
REMARK                            x       y       z     vdW  Elec       q    Type
REMARK                         _______ _______ _______ _____ _____    ______ ____
ROOT
ATOM      1 CL1  UNL     1     155.680 159.476 173.598  0.00  0.00    +0.000 Cl
ATOM      2  C1  UNL     1     156.138 159.154 171.944  0.00  0.00    +0.000 A 
ATOM      3  C2  UNL     1     155.242 159.204 170.893  0.00  0.00    +0.000 A 
ATOM      4  C3  UNL     1     155.609 158.948 169.582  0.00  0.00    +0.000 A 
ATOM      5  C4  UNL     1     154.693 159.003 168.534  0.00  0.00    +0.000 A 
ATOM      6  C11 UNL     1     155.055 158.750 167.225  0.00  0.00    +0.000 A 
ATOM      7  C12 UNL     1     156.387 158.432 166.994  0.00  0.00    +0.000 A 
ATOM      8  C13 UNL     1     156.761 158.162 165.592  0.00  0.00    +0.000 C 
ATOM      9  N1  UNL     1     157.257 158.383 168.019  0.00  0.00    +0.000 NA
ATOM     10  C14 UNL     1     156.917 158.628 169.293  0.00  0.00    +0.000 A 
ATOM     11  C15 UNL     1     157.830 158.572 170.328  0.00  0.00    +0.000 A 
ATOM     12  C16 UNL     1     157.444 158.831 171.636  0.00  0.00    +0.000 A 
ENDROOT
BRANCH   5  13
ATOM     13  C5  UNL     1     153.324 159.352 168.926  0.00  0.00    +0.000 A 
ATOM     14  C6  UNL     1     152.799 160.603 168.889  0.00  0.00    +0.000 A 
ATOM     15  C7  UNL     1     151.489 160.818 169.285  0.00  0.00    +0.000 A 
ATOM     16  C8  UNL     1     150.671 159.793 169.725  0.00  0.00    +0.000 A 
ATOM     17  C9  UNL     1     151.204 158.522 169.763  0.00  0.00    +0.000 A 
ATOM     18  C10 UNL     1     152.508 158.312 169.368  0.00  0.00    +0.000 A 
ENDBRANCH   5  13
BRANCH   6  19
ATOM     19  C17 UNL     1     154.040 158.829 166.187  0.00  0.00    +0.000 C 
BRANCH  19  20
ATOM     20  C18 UNL     1     153.771 160.131 165.627  0.00  0.00    +0.000 C 
ATOM     21  O1  UNL     1     154.695 160.943 165.414  0.00  0.00    +0.000 OA
BRANCH  20  22
ATOM     22  O2  UNL     1     152.496 160.543 165.303  0.00  0.00    +0.000 OA
ATOM     23  H14 UNL     1     151.911 161.136 165.855  0.00  0.00    +0.000 HD
ENDBRANCH  20  22
ENDBRANCH  19  20
ENDBRANCH   6  19
TORSDOF 4
ENDMDL
MODEL 4
REMARK VINA RESULT:      -5.4      2.065      3.066
REMARK  Name = ./3D_structures\o59_MMV1580801_3D.pdb
REMARK  5 active torsions:
REMARK  status: ('A' for Active; 'I' for Inactive)
REMARK    1  A    between atoms: C4_5  and  C5_6
REMARK    2  A    between atoms: C11_12  and  C17_19
REMARK    3  A    between atoms: C12_13  and  C13_14
REMARK    4  A    between atoms: C17_19  and  C18_20
REMARK    5  A    between atoms: C18_20  and  O2_22
REMARK                            x       y       z     vdW  Elec       q    Type
REMARK                         _______ _______ _______ _____ _____    ______ ____
ROOT
ATOM      1 CL1  UNL     1     163.467 160.083 167.922  0.00  0.00    +0.000 Cl
ATOM      2  C1  UNL     1     162.389 158.990 167.089  0.00  0.00    +0.000 A 
ATOM      3  C2  UNL     1     161.059 158.838 167.434  0.00  0.00    +0.000 A 
ATOM      4  C3  UNL     1     160.207 157.971 166.771  0.00  0.00    +0.000 A 
ATOM      5  C4  UNL     1     158.869 157.829 167.132  0.00  0.00    +0.000 A 
ATOM      6  C11 UNL     1     158.015 156.966 166.473  0.00  0.00    +0.000 A 
ATOM      7  C12 UNL     1     158.553 156.234 165.422  0.00  0.00    +0.000 A 
ATOM      8  C13 UNL     1     157.632 155.314 164.726  0.00  0.00    +0.000 C 
ATOM      9  N1  UNL     1     159.848 156.384 165.088  0.00  0.00    +0.000 NA
ATOM     10  C14 UNL     1     160.686 157.219 165.720  0.00  0.00    +0.000 A 
ATOM     11  C15 UNL     1     162.011 157.355 165.358  0.00  0.00    +0.000 A 
ATOM     12  C16 UNL     1     162.851 158.229 166.034  0.00  0.00    +0.000 A 
ENDROOT
BRANCH   5  13
ATOM     13  C5  UNL     1     158.440 158.665 168.257  0.00  0.00    +0.000 A 
ATOM     14  C6  UNL     1     158.038 159.958 168.158  0.00  0.00    +0.000 A 
ATOM     15  C7  UNL     1     157.653 160.654 169.292  0.00  0.00    +0.000 A 
ATOM     16  C8  UNL     1     157.658 160.081 170.550  0.00  0.00    +0.000 A 
ATOM     17  C9  UNL     1     158.067 158.768 170.652  0.00  0.00    +0.000 A 
ATOM     18  C10 UNL     1     158.449 158.078 169.522  0.00  0.00    +0.000 A 
ENDBRANCH   5  13
BRANCH   6  19
ATOM     19  C17 UNL     1     156.632 156.877 166.908  0.00  0.00    +0.000 C 
BRANCH  19  20
ATOM     20  C18 UNL     1     155.678 157.739 166.254  0.00  0.00    +0.000 C 
ATOM     21  O1  UNL     1     154.455 157.631 166.476  0.00  0.00    +0.000 OA
BRANCH  20  22
ATOM     22  O2  UNL     1     156.063 158.717 165.360  0.00  0.00    +0.000 OA
ATOM     23  H14 UNL     1     156.991 159.059 165.227  0.00  0.00    +0.000 HD
ENDBRANCH  20  22
ENDBRANCH  19  20
ENDBRANCH   6  19
TORSDOF 4
ENDMDL
MODEL 5
REMARK VINA RESULT:      -5.3      5.216      7.093
REMARK  Name = ./3D_structures\o59_MMV1580801_3D.pdb
REMARK  5 active torsions:
REMARK  status: ('A' for Active; 'I' for Inactive)
REMARK    1  A    between atoms: C4_5  and  C5_6
REMARK    2  A    between atoms: C11_12  and  C17_19
REMARK    3  A    between atoms: C12_13  and  C13_14
REMARK    4  A    between atoms: C17_19  and  C18_20
REMARK    5  A    between atoms: C18_20  and  O2_22
REMARK                            x       y       z     vdW  Elec       q    Type
REMARK                         _______ _______ _______ _____ _____    ______ ____
ROOT
ATOM      1 CL1  UNL     1     156.770 158.508 164.875  0.00  0.00    +0.000 Cl
ATOM      2  C1  UNL     1     155.572 158.536 166.147  0.00  0.00    +0.000 A 
ATOM      3  C2  UNL     1     154.606 159.518 166.248  0.00  0.00    +0.000 A 
ATOM      4  C3  UNL     1     153.658 159.536 167.258  0.00  0.00    +0.000 A 
ATOM      5  C4  UNL     1     152.690 160.535 167.344  0.00  0.00    +0.000 A 
ATOM      6  C11 UNL     1     151.743 160.557 168.349  0.00  0.00    +0.000 A 
ATOM      7  C12 UNL     1     151.796 159.529 169.283  0.00  0.00    +0.000 A 
ATOM      8  C13 UNL     1     150.779 159.564 170.352  0.00  0.00    +0.000 C 
ATOM      9  N1  UNL     1     152.738 158.574 169.183  0.00  0.00    +0.000 NA
ATOM     10  C14 UNL     1     153.663 158.543 168.211  0.00  0.00    +0.000 A 
ATOM     11  C15 UNL     1     154.619 157.550 168.130  0.00  0.00    +0.000 A 
ATOM     12  C16 UNL     1     155.562 157.548 167.111  0.00  0.00    +0.000 A 
ENDROOT
BRANCH   5  13
ATOM     13  C5  UNL     1     152.754 161.552 166.291  0.00  0.00    +0.000 A 
ATOM     14  C6  UNL     1     152.117 161.475 165.095  0.00  0.00    +0.000 A 
ATOM     15  C7  UNL     1     152.249 162.498 164.170  0.00  0.00    +0.000 A 
ATOM     16  C8  UNL     1     153.017 163.622 164.415  0.00  0.00    +0.000 A 
ATOM     17  C9  UNL     1     153.664 163.702 165.630  0.00  0.00    +0.000 A 
ATOM     18  C10 UNL     1     153.530 162.681 166.547  0.00  0.00    +0.000 A 
ENDBRANCH   5  13
BRANCH   6  19
ATOM     19  C17 UNL     1     150.764 161.631 168.370  0.00  0.00    +0.000 C 
BRANCH  19  20
ATOM     20  C18 UNL     1     149.423 161.309 167.947  0.00  0.00    +0.000 C 
ATOM     21  O1  UNL     1     149.207 160.790 166.833  0.00  0.00    +0.000 OA
BRANCH  20  22
ATOM     22  O2  UNL     1     148.323 161.556 168.741  0.00  0.00    +0.000 OA
ATOM     23  H14 UNL     1     148.336 161.957 169.656  0.00  0.00    +0.000 HD
ENDBRANCH  20  22
ENDBRANCH  19  20
ENDBRANCH   6  19
TORSDOF 4
ENDMDL
MODEL 6
REMARK VINA RESULT:      -5.3      3.439      5.785
REMARK  Name = ./3D_structures\o59_MMV1580801_3D.pdb
REMARK  5 active torsions:
REMARK  status: ('A' for Active; 'I' for Inactive)
REMARK    1  A    between atoms: C4_5  and  C5_6
REMARK    2  A    between atoms: C11_12  and  C17_19
REMARK    3  A    between atoms: C12_13  and  C13_14
REMARK    4  A    between atoms: C17_19  and  C18_20
REMARK    5  A    between atoms: C18_20  and  O2_22
REMARK                            x       y       z     vdW  Elec       q    Type
REMARK                         _______ _______ _______ _____ _____    ______ ____
ROOT
ATOM      1 CL1  UNL     1     158.926 158.388 169.029  0.00  0.00    +0.000 Cl
ATOM      2  C1  UNL     1     157.545 158.831 170.004  0.00  0.00    +0.000 A 
ATOM      3  C2  UNL     1     156.355 159.275 169.462  0.00  0.00    +0.000 A 
ATOM      4  C3  UNL     1     155.261 159.624 170.237  0.00  0.00    +0.000 A 
ATOM      5  C4  UNL     1     154.068 160.070 169.674  0.00  0.00    +0.000 A 
ATOM      6  C11 UNL     1     152.975 160.419 170.443  0.00  0.00    +0.000 A 
ATOM      7  C12 UNL     1     153.118 160.306 171.821  0.00  0.00    +0.000 A 
ATOM      8  C13 UNL     1     151.944 160.684 172.633  0.00  0.00    +0.000 C 
ATOM      9  N1  UNL     1     154.278 159.874 172.347  0.00  0.00    +0.000 NA
ATOM     10  C14 UNL     1     155.346 159.533 171.609  0.00  0.00    +0.000 A 
ATOM     11  C15 UNL     1     156.526 159.091 172.173  0.00  0.00    +0.000 A 
ATOM     12  C16 UNL     1     157.612 158.745 171.379  0.00  0.00    +0.000 A 
ENDROOT
BRANCH   5  13
ATOM     13  C5  UNL     1     154.061 160.137 168.210  0.00  0.00    +0.000 A 
ATOM     14  C6  UNL     1     153.800 159.092 167.384  0.00  0.00    +0.000 A 
ATOM     15  C7  UNL     1     153.822 159.270 166.010  0.00  0.00    +0.000 A 
ATOM     16  C8  UNL     1     154.103 160.492 165.426  0.00  0.00    +0.000 A 
ATOM     17  C9  UNL     1     154.369 161.554 166.264  0.00  0.00    +0.000 A 
ATOM     18  C10 UNL     1     154.346 161.373 167.631  0.00  0.00    +0.000 A 
ENDBRANCH   5  13
BRANCH   6  19
ATOM     19  C17 UNL     1     151.764 160.873 169.781  0.00  0.00    +0.000 C 
BRANCH  19  20
ATOM     20  C18 UNL     1     150.727 159.896 169.561  0.00  0.00    +0.000 C 
ATOM     21  O1  UNL     1     149.553 160.246 169.321  0.00  0.00    +0.000 OA
BRANCH  20  22
ATOM     22  O2  UNL     1     150.974 158.539 169.605  0.00  0.00    +0.000 OA
ATOM     23  H14 UNL     1     151.768 158.074 169.217  0.00  0.00    +0.000 HD
ENDBRANCH  20  22
ENDBRANCH  19  20
ENDBRANCH   6  19
TORSDOF 4
ENDMDL
MODEL 7
REMARK VINA RESULT:      -5.2      1.974      4.149
REMARK  Name = ./3D_structures\o59_MMV1580801_3D.pdb
REMARK  5 active torsions:
REMARK  status: ('A' for Active; 'I' for Inactive)
REMARK    1  A    between atoms: C4_5  and  C5_6
REMARK    2  A    between atoms: C11_12  and  C17_19
REMARK    3  A    between atoms: C12_13  and  C13_14
REMARK    4  A    between atoms: C17_19  and  C18_20
REMARK    5  A    between atoms: C18_20  and  O2_22
REMARK                            x       y       z     vdW  Elec       q    Type
REMARK                         _______ _______ _______ _____ _____    ______ ____
ROOT
ATOM      1 CL1  UNL     1     160.200 161.704 165.725  0.00  0.00    +0.000 Cl
ATOM      2  C1  UNL     1     159.449 161.337 167.259  0.00  0.00    +0.000 A 
ATOM      3  C2  UNL     1     158.589 160.271 167.439  0.00  0.00    +0.000 A 
ATOM      4  C3  UNL     1     157.996 159.982 168.657  0.00  0.00    +0.000 A 
ATOM      5  C4  UNL     1     157.132 158.902 168.821  0.00  0.00    +0.000 A 
ATOM      6  C11 UNL     1     156.539 158.611 170.033  0.00  0.00    +0.000 A 
ATOM      7  C12 UNL     1     156.842 159.451 171.097  0.00  0.00    +0.000 A 
ATOM      8  C13 UNL     1     156.201 159.131 172.388  0.00  0.00    +0.000 C 
ATOM      9  N1  UNL     1     157.679 160.490 170.919  0.00  0.00    +0.000 NA
ATOM     10  C14 UNL     1     158.261 160.782 169.746  0.00  0.00    +0.000 A 
ATOM     11  C15 UNL     1     159.117 161.854 169.590  0.00  0.00    +0.000 A 
ATOM     12  C16 UNL     1     159.702 162.128 168.361  0.00  0.00    +0.000 A 
ENDROOT
BRANCH   5  13
ATOM     13  C5  UNL     1     156.905 158.102 167.614  0.00  0.00    +0.000 A 
ATOM     14  C6  UNL     1     155.963 158.365 166.672  0.00  0.00    +0.000 A 
ATOM     15  C7  UNL     1     155.836 157.537 165.568  0.00  0.00    +0.000 A 
ATOM     16  C8  UNL     1     156.644 156.431 165.374  0.00  0.00    +0.000 A 
ATOM     17  C9  UNL     1     157.600 156.164 166.331  0.00  0.00    +0.000 A 
ATOM     18  C10 UNL     1     157.723 156.989 167.428  0.00  0.00    +0.000 A 
ENDBRANCH   5  13
BRANCH   6  19
ATOM     19  C17 UNL     1     155.650 157.464 170.125  0.00  0.00    +0.000 C 
BRANCH  19  20
ATOM     20  C18 UNL     1     154.300 157.637 169.648  0.00  0.00    +0.000 C 
ATOM     21  O1  UNL     1     153.605 158.604 170.023  0.00  0.00    +0.000 OA
BRANCH  20  22
ATOM     22  O2  UNL     1     153.714 156.756 168.763  0.00  0.00    +0.000 OA
ATOM     23  H14 UNL     1     153.641 155.767 168.881  0.00  0.00    +0.000 HD
ENDBRANCH  20  22
ENDBRANCH  19  20
ENDBRANCH   6  19
TORSDOF 4
ENDMDL
MODEL 8
REMARK VINA RESULT:      -5.1      2.099      4.502
REMARK  Name = ./3D_structures\o59_MMV1580801_3D.pdb
REMARK  5 active torsions:
REMARK  status: ('A' for Active; 'I' for Inactive)
REMARK    1  A    between atoms: C4_5  and  C5_6
REMARK    2  A    between atoms: C11_12  and  C17_19
REMARK    3  A    between atoms: C12_13  and  C13_14
REMARK    4  A    between atoms: C17_19  and  C18_20
REMARK    5  A    between atoms: C18_20  and  O2_22
REMARK                            x       y       z     vdW  Elec       q    Type
REMARK                         _______ _______ _______ _____ _____    ______ ____
ROOT
ATOM      1 CL1  UNL     1     161.366 162.955 169.339  0.00  0.00    +0.000 Cl
ATOM      2  C1  UNL     1     159.982 161.891 169.390  0.00  0.00    +0.000 A 
ATOM      3  C2  UNL     1     159.881 160.751 168.617  0.00  0.00    +0.000 A 
ATOM      4  C3  UNL     1     158.783 159.909 168.660  0.00  0.00    +0.000 A 
ATOM      5  C4  UNL     1     158.698 158.762 167.873  0.00  0.00    +0.000 A 
ATOM      6  C11 UNL     1     157.605 157.920 167.914  0.00  0.00    +0.000 A 
ATOM      7  C12 UNL     1     156.578 158.267 168.783  0.00  0.00    +0.000 A 
ATOM      8  C13 UNL     1     155.414 157.360 168.816  0.00  0.00    +0.000 C 
ATOM      9  N1  UNL     1     156.677 159.379 169.535  0.00  0.00    +0.000 NA
ATOM     10  C14 UNL     1     157.735 160.204 169.503  0.00  0.00    +0.000 A 
ATOM     11  C15 UNL     1     157.813 161.339 170.286  0.00  0.00    +0.000 A 
ATOM     12  C16 UNL     1     158.922 162.171 170.229  0.00  0.00    +0.000 A 
ENDROOT
BRANCH   5  13
ATOM     13  C5  UNL     1     159.855 158.520 167.005  0.00  0.00    +0.000 A 
ATOM     14  C6  UNL     1     159.931 158.868 165.695  0.00  0.00    +0.000 A 
ATOM     15  C7  UNL     1     161.077 158.588 164.968  0.00  0.00    +0.000 A 
ATOM     16  C8  UNL     1     162.173 157.959 165.528  0.00  0.00    +0.000 A 
ATOM     17  C9  UNL     1     162.097 157.606 166.859  0.00  0.00    +0.000 A 
ATOM     18  C10 UNL     1     160.955 157.885 167.578  0.00  0.00    +0.000 A 
ENDBRANCH   5  13
BRANCH   6  19
ATOM     19  C17 UNL     1     157.593 156.741 167.063  0.00  0.00    +0.000 C 
BRANCH  19  20
ATOM     20  C18 UNL     1     156.808 156.809 165.854  0.00  0.00    +0.000 C 
ATOM     21  O1  UNL     1     156.595 157.900 165.287  0.00  0.00    +0.000 OA
BRANCH  20  22
ATOM     22  O2  UNL     1     156.259 155.687 165.270  0.00  0.00    +0.000 OA
ATOM     23  H14 UNL     1     156.500 155.312 164.377  0.00  0.00    +0.000 HD
ENDBRANCH  20  22
ENDBRANCH  19  20
ENDBRANCH   6  19
TORSDOF 4
ENDMDL
MODEL 9
REMARK VINA RESULT:      -5.0      3.213      5.801
REMARK  Name = ./3D_structures\o59_MMV1580801_3D.pdb
REMARK  5 active torsions:
REMARK  status: ('A' for Active; 'I' for Inactive)
REMARK    1  A    between atoms: C4_5  and  C5_6
REMARK    2  A    between atoms: C11_12  and  C17_19
REMARK    3  A    between atoms: C12_13  and  C13_14
REMARK    4  A    between atoms: C17_19  and  C18_20
REMARK    5  A    between atoms: C18_20  and  O2_22
REMARK                            x       y       z     vdW  Elec       q    Type
REMARK                         _______ _______ _______ _____ _____    ______ ____
ROOT
ATOM      1 CL1  UNL     1     160.058 156.387 162.604  0.00  0.00    +0.000 Cl
ATOM      2  C1  UNL     1     159.051 156.468 164.029  0.00  0.00    +0.000 A 
ATOM      3  C2  UNL     1     159.401 157.185 165.157  0.00  0.00    +0.000 A 
ATOM      4  C3  UNL     1     158.600 157.247 166.285  0.00  0.00    +0.000 A 
ATOM      5  C4  UNL     1     158.969 157.975 167.414  0.00  0.00    +0.000 A 
ATOM      6  C11 UNL     1     158.173 158.040 168.541  0.00  0.00    +0.000 A 
ATOM      7  C12 UNL     1     156.974 157.339 168.502  0.00  0.00    +0.000 A 
ATOM      8  C13 UNL     1     156.132 157.415 169.713  0.00  0.00    +0.000 C 
ATOM      9  N1  UNL     1     156.635 156.641 167.403  0.00  0.00    +0.000 NA
ATOM     10  C14 UNL     1     157.400 156.571 166.303  0.00  0.00    +0.000 A 
ATOM     11  C15 UNL     1     157.030 155.848 165.187  0.00  0.00    +0.000 A 
ATOM     12  C16 UNL     1     157.846 155.797 164.065  0.00  0.00    +0.000 A 
ENDROOT
BRANCH   5  13
ATOM     13  C5  UNL     1     160.258 158.665 167.312  0.00  0.00    +0.000 A 
ATOM     14  C6  UNL     1     160.416 159.981 167.022  0.00  0.00    +0.000 A 
ATOM     15  C7  UNL     1     161.686 160.529 166.950  0.00  0.00    +0.000 A 
ATOM     16  C8  UNL     1     162.829 159.781 167.167  0.00  0.00    +0.000 A 
ATOM     17  C9  UNL     1     162.670 158.443 167.462  0.00  0.00    +0.000 A 
ATOM     18  C10 UNL     1     161.404 157.902 167.533  0.00  0.00    +0.000 A 
ENDBRANCH   5  13
BRANCH   6  19
ATOM     19  C17 UNL     1     158.626 158.823 169.678  0.00  0.00    +0.000 C 
BRANCH  19  20
ATOM     20  C18 UNL     1     157.973 160.088 169.910  0.00  0.00    +0.000 C 
ATOM     21  O1  UNL     1     157.640 160.438 171.061  0.00  0.00    +0.000 OA
BRANCH  20  22
ATOM     22  O2  UNL     1     157.684 160.965 168.886  0.00  0.00    +0.000 OA
ATOM     23  H14 UNL     1     157.345 161.899 168.990  0.00  0.00    +0.000 HD
ENDBRANCH  20  22
ENDBRANCH  19  20
ENDBRANCH   6  19
TORSDOF 4
ENDMDL
