MODEL 1
REMARK VINA RESULT:      -8.3      0.000      0.000
REMARK  Name = ./3D_structures\o5_MMV1580503_3D.pdb
REMARK  7 active torsions:
REMARK  status: ('A' for Active; 'I' for Inactive)
REMARK    1  A    between atoms: C6_9  and  C7_10
REMARK    2  A    between atoms: C10_13  and  O2_14
REMARK    3  A    between atoms: O2_14  and  C11_15
REMARK    4  A    between atoms: C11_15  and  C12_16
REMARK    5  A    between atoms: C20_24  and  C21_26
REMARK    6  A    between atoms: C27_32  and  C29_34
REMARK    7  A    between atoms: C27_32  and  C30_35
REMARK                            x       y       z     vdW  Elec       q    Type
REMARK                         _______ _______ _______ _____ _____    ______ ____
ROOT
ATOM      1  O1  UNL     1     146.302 163.447 169.973  0.00  0.00    +0.000 OA
ATOM      2  C1  UNL     1     146.252 163.864 168.804  0.00  0.00    +0.000 C 
ATOM      3  C2  UNL     1     147.519 164.206 168.135  0.00  0.00    +0.000 C 
ATOM      4  C3  UNL     1     147.472 164.549 166.877  0.00  0.00    +0.000 C 
ATOM      5  N1  UNL     1     148.559 164.931 165.994  0.00  0.00    +0.000 N 
ATOM      6  C4  UNL     1     149.840 165.423 166.371  0.00  0.00    +0.000 A 
ATOM      7  C5  UNL     1     150.279 165.480 167.697  0.00  0.00    +0.000 A 
ATOM      8  N2  UNL     1     149.618 165.164 168.891  0.00  0.00    +0.000 N 
ATOM      9  C6  UNL     1     148.675 164.084 169.085  0.00  0.00    +0.000 C 
ATOM     10  C20 UNL     1     149.826 166.011 169.986  0.00  0.00    +0.000 C 
ATOM     11  O3  UNL     1     149.469 165.645 171.170  0.00  0.00    +0.000 OA
ATOM     12  C21 UNL     1     150.429 167.365 169.976  0.00  0.00    +0.000 C 
ATOM     13  C22 UNL     1     151.565 165.930 167.893  0.00  0.00    +0.000 A 
ATOM     14  C23 UNL     1     152.364 166.307 166.835  0.00  0.00    +0.000 A 
ATOM     15  C24 UNL     1     151.907 166.246 165.536  0.00  0.00    +0.000 A 
ATOM     16  C25 UNL     1     150.626 165.796 165.325  0.00  0.00    +0.000 A 
ATOM     17  C26 UNL     1     146.205 164.611 166.051  0.00  0.00    +0.000 C 
ATOM     18  C27 UNL     1     145.050 163.916 166.648  0.00  0.00    +0.000 C 
ATOM     19  C28 UNL     1     144.946 163.997 168.150  0.00  0.00    +0.000 C 
ATOM     20  C29 UNL     1     143.779 164.591 166.114  0.00  0.00    +0.000 C 
ATOM     21  C30 UNL     1     145.069 162.456 166.181  0.00  0.00    +0.000 C 
ATOM     22  H1  UNL     1     148.392 164.836 164.974  0.00  0.00    +0.000 HD
ENDROOT
BRANCH   9  23
ATOM     23  C7  UNL     1     149.272 162.748 169.115  0.00  0.00    +0.000 A 
ATOM     24  C8  UNL     1     148.875 161.691 168.320  0.00  0.00    +0.000 A 
ATOM     25  C9  UNL     1     149.516 160.484 168.412  0.00  0.00    +0.000 A 
ATOM     26  C10 UNL     1     150.576 160.274 169.296  0.00  0.00    +0.000 A 
ATOM     27  C18 UNL     1     150.986 161.308 170.093  0.00  0.00    +0.000 A 
ATOM     28  C19 UNL     1     150.341 162.517 169.998  0.00  0.00    +0.000 A 
BRANCH  26  29
ATOM     29  O2  UNL     1     151.221 159.061 169.390  0.00  0.00    +0.000 OA
BRANCH  29  30
ATOM     30  C11 UNL     1     152.590 159.046 169.728  0.00  0.00    +0.000 C 
BRANCH  30  31
ATOM     31  C12 UNL     1     153.382 158.782 168.495  0.00  0.00    +0.000 A 
ATOM     32  C13 UNL     1     153.288 159.619 167.387  0.00  0.00    +0.000 A 
ATOM     33  C14 UNL     1     154.026 159.356 166.263  0.00  0.00    +0.000 A 
ATOM     34  C15 UNL     1     154.871 158.275 166.188  0.00  0.00    +0.000 A 
ATOM     35  C16 UNL     1     154.939 157.463 167.311  0.00  0.00    +0.000 A 
ATOM     36  C17 UNL     1     154.213 157.707 168.441  0.00  0.00    +0.000 A 
ENDBRANCH  30  31
ENDBRANCH  29  30
ENDBRANCH  26  29
ENDBRANCH   9  23
TORSDOF 4
ENDMDL
MODEL 2
REMARK VINA RESULT:      -8.1      3.161      8.255
REMARK  Name = ./3D_structures\o5_MMV1580503_3D.pdb
REMARK  7 active torsions:
REMARK  status: ('A' for Active; 'I' for Inactive)
REMARK    1  A    between atoms: C6_9  and  C7_10
REMARK    2  A    between atoms: C10_13  and  O2_14
REMARK    3  A    between atoms: O2_14  and  C11_15
REMARK    4  A    between atoms: C11_15  and  C12_16
REMARK    5  A    between atoms: C20_24  and  C21_26
REMARK    6  A    between atoms: C27_32  and  C29_34
REMARK    7  A    between atoms: C27_32  and  C30_35
REMARK                            x       y       z     vdW  Elec       q    Type
REMARK                         _______ _______ _______ _____ _____    ______ ____
ROOT
ATOM      1  O1  UNL     1     152.401 163.314 168.171  0.00  0.00    +0.000 OA
ATOM      2  C1  UNL     1     152.098 163.912 167.125  0.00  0.00    +0.000 C 
ATOM      3  C2  UNL     1     150.781 164.568 167.059  0.00  0.00    +0.000 C 
ATOM      4  C3  UNL     1     150.505 165.277 166.000  0.00  0.00    +0.000 C 
ATOM      5  N1  UNL     1     149.295 166.016 165.686  0.00  0.00    +0.000 N 
ATOM      6  C4  UNL     1     147.997 165.811 166.231  0.00  0.00    +0.000 A 
ATOM      7  C5  UNL     1     147.738 164.923 167.280  0.00  0.00    +0.000 A 
ATOM      8  N2  UNL     1     148.588 164.039 167.957  0.00  0.00    +0.000 N 
ATOM      9  C6  UNL     1     149.975 164.275 168.292  0.00  0.00    +0.000 C 
ATOM     10  C20 UNL     1     148.078 162.775 168.279  0.00  0.00    +0.000 C 
ATOM     11  O3  UNL     1     148.698 162.017 169.119  0.00  0.00    +0.000 OA
ATOM     12  C21 UNL     1     146.850 162.138 167.749  0.00  0.00    +0.000 C 
ATOM     13  C22 UNL     1     146.440 164.880 167.733  0.00  0.00    +0.000 A 
ATOM     14  C23 UNL     1     145.456 165.667 167.174  0.00  0.00    +0.000 A 
ATOM     15  C24 UNL     1     145.734 166.532 166.137  0.00  0.00    +0.000 A 
ATOM     16  C25 UNL     1     147.028 166.589 165.677  0.00  0.00    +0.000 A 
ATOM     17  C26 UNL     1     151.449 165.481 164.834  0.00  0.00    +0.000 C 
ATOM     18  C27 UNL     1     152.852 165.125 165.112  0.00  0.00    +0.000 C 
ATOM     19  C28 UNL     1     153.055 163.934 166.015  0.00  0.00    +0.000 C 
ATOM     20  C29 UNL     1     153.503 164.741 163.776  0.00  0.00    +0.000 C 
ATOM     21  C30 UNL     1     153.563 166.361 165.673  0.00  0.00    +0.000 C 
ATOM     22  H1  UNL     1     149.379 166.779 164.988  0.00  0.00    +0.000 HD
ENDROOT
BRANCH   9  23
ATOM     23  C7  UNL     1     150.189 165.237 169.374  0.00  0.00    +0.000 A 
ATOM     24  C8  UNL     1     150.073 164.948 170.719  0.00  0.00    +0.000 A 
ATOM     25  C9  UNL     1     150.316 165.919 171.653  0.00  0.00    +0.000 A 
ATOM     26  C10 UNL     1     150.682 167.217 171.295  0.00  0.00    +0.000 A 
ATOM     27  C18 UNL     1     150.804 167.526 169.968  0.00  0.00    +0.000 A 
ATOM     28  C19 UNL     1     150.560 166.550 169.033  0.00  0.00    +0.000 A 
BRANCH  26  29
ATOM     29  O2  UNL     1     150.926 168.195 172.234  0.00  0.00    +0.000 OA
BRANCH  29  30
ATOM     30  C11 UNL     1     151.446 169.433 171.804  0.00  0.00    +0.000 C 
BRANCH  30  31
ATOM     31  C12 UNL     1     150.560 170.521 172.300  0.00  0.00    +0.000 A 
ATOM     32  C13 UNL     1     150.417 171.711 171.592  0.00  0.00    +0.000 A 
ATOM     33  C14 UNL     1     149.595 172.698 172.068  0.00  0.00    +0.000 A 
ATOM     34  C15 UNL     1     148.895 172.555 173.242  0.00  0.00    +0.000 A 
ATOM     35  C16 UNL     1     149.062 171.357 173.920  0.00  0.00    +0.000 A 
ATOM     36  C17 UNL     1     149.875 170.359 173.463  0.00  0.00    +0.000 A 
ENDBRANCH  30  31
ENDBRANCH  29  30
ENDBRANCH  26  29
ENDBRANCH   9  23
TORSDOF 4
ENDMDL
MODEL 3
REMARK VINA RESULT:      -8.1      1.724      2.294
REMARK  Name = ./3D_structures\o5_MMV1580503_3D.pdb
REMARK  7 active torsions:
REMARK  status: ('A' for Active; 'I' for Inactive)
REMARK    1  A    between atoms: C6_9  and  C7_10
REMARK    2  A    between atoms: C10_13  and  O2_14
REMARK    3  A    between atoms: O2_14  and  C11_15
REMARK    4  A    between atoms: C11_15  and  C12_16
REMARK    5  A    between atoms: C20_24  and  C21_26
REMARK    6  A    between atoms: C27_32  and  C29_34
REMARK    7  A    between atoms: C27_32  and  C30_35
REMARK                            x       y       z     vdW  Elec       q    Type
REMARK                         _______ _______ _______ _____ _____    ______ ____
ROOT
ATOM      1  O1  UNL     1     147.195 164.771 170.461  0.00  0.00    +0.000 OA
ATOM      2  C1  UNL     1     147.046 164.826 169.229  0.00  0.00    +0.000 C 
ATOM      3  C2  UNL     1     148.247 164.990 168.392  0.00  0.00    +0.000 C 
ATOM      4  C3  UNL     1     148.098 164.949 167.097  0.00  0.00    +0.000 C 
ATOM      5  N1  UNL     1     149.104 165.083 166.058  0.00  0.00    +0.000 N 
ATOM      6  C4  UNL     1     150.382 165.698 166.174  0.00  0.00    +0.000 A 
ATOM      7  C5  UNL     1     150.908 166.151 167.388  0.00  0.00    +0.000 A 
ATOM      8  N2  UNL     1     150.344 166.181 168.671  0.00  0.00    +0.000 N 
ATOM      9  C6  UNL     1     149.469 165.182 169.243  0.00  0.00    +0.000 C 
ATOM     10  C20 UNL     1     150.585 167.317 169.453  0.00  0.00    +0.000 C 
ATOM     11  O3  UNL     1     150.327 167.304 170.717  0.00  0.00    +0.000 OA
ATOM     12  C21 UNL     1     151.121 168.624 169.003  0.00  0.00    +0.000 C 
ATOM     13  C22 UNL     1     152.180 166.672 167.343  0.00  0.00    +0.000 A 
ATOM     14  C23 UNL     1     152.887 166.743 166.162  0.00  0.00    +0.000 A 
ATOM     15  C24 UNL     1     152.347 166.293 164.976  0.00  0.00    +0.000 A 
ATOM     16  C25 UNL     1     151.078 165.767 165.006  0.00  0.00    +0.000 A 
ATOM     17  C26 UNL     1     146.777 164.734 166.391  0.00  0.00    +0.000 C 
ATOM     18  C27 UNL     1     145.699 164.214 167.252  0.00  0.00    +0.000 C 
ATOM     19  C28 UNL     1     145.694 164.728 168.670  0.00  0.00    +0.000 C 
ATOM     20  C29 UNL     1     144.365 164.670 166.646  0.00  0.00    +0.000 C 
ATOM     21  C30 UNL     1     145.757 162.683 167.228  0.00  0.00    +0.000 C 
ATOM     22  H1  UNL     1     148.873 164.690 165.126  0.00  0.00    +0.000 HD
ENDROOT
BRANCH   9  23
ATOM     23  C7  UNL     1     150.129 163.928 169.612  0.00  0.00    +0.000 A 
ATOM     24  C8  UNL     1     149.992 162.736 168.930  0.00  0.00    +0.000 A 
ATOM     25  C9  UNL     1     150.672 161.624 169.348  0.00  0.00    +0.000 A 
ATOM     26  C10 UNL     1     151.518 161.646 170.458  0.00  0.00    +0.000 A 
ATOM     27  C18 UNL     1     151.670 162.818 171.149  0.00  0.00    +0.000 A 
ATOM     28  C19 UNL     1     150.986 163.932 170.727  0.00  0.00    +0.000 A 
BRANCH  26  29
ATOM     29  O2  UNL     1     152.202 160.528 170.880  0.00  0.00    +0.000 OA
BRANCH  29  30
ATOM     30  C11 UNL     1     153.018 159.844 169.955  0.00  0.00    +0.000 C 
BRANCH  30  31
ATOM     31  C12 UNL     1     154.253 159.391 170.652  0.00  0.00    +0.000 A 
ATOM     32  C13 UNL     1     155.023 158.348 170.146  0.00  0.00    +0.000 A 
ATOM     33  C14 UNL     1     156.155 157.948 170.805  0.00  0.00    +0.000 A 
ATOM     34  C15 UNL     1     156.566 158.550 171.970  0.00  0.00    +0.000 A 
ATOM     35  C16 UNL     1     155.774 159.585 172.445  0.00  0.00    +0.000 A 
ATOM     36  C17 UNL     1     154.642 160.000 171.803  0.00  0.00    +0.000 A 
ENDBRANCH  30  31
ENDBRANCH  29  30
ENDBRANCH  26  29
ENDBRANCH   9  23
TORSDOF 4
ENDMDL
MODEL 4
REMARK VINA RESULT:      -7.9      2.863      7.426
REMARK  Name = ./3D_structures\o5_MMV1580503_3D.pdb
REMARK  7 active torsions:
REMARK  status: ('A' for Active; 'I' for Inactive)
REMARK    1  A    between atoms: C6_9  and  C7_10
REMARK    2  A    between atoms: C10_13  and  O2_14
REMARK    3  A    between atoms: O2_14  and  C11_15
REMARK    4  A    between atoms: C11_15  and  C12_16
REMARK    5  A    between atoms: C20_24  and  C21_26
REMARK    6  A    between atoms: C27_32  and  C29_34
REMARK    7  A    between atoms: C27_32  and  C30_35
REMARK                            x       y       z     vdW  Elec       q    Type
REMARK                         _______ _______ _______ _____ _____    ______ ____
ROOT
ATOM      1  O1  UNL     1     147.400 166.636 166.198  0.00  0.00    +0.000 OA
ATOM      2  C1  UNL     1     147.137 165.439 166.398  0.00  0.00    +0.000 C 
ATOM      3  C2  UNL     1     148.229 164.552 166.832  0.00  0.00    +0.000 C 
ATOM      4  C3  UNL     1     147.930 163.319 167.136  0.00  0.00    +0.000 C 
ATOM      5  N1  UNL     1     148.806 162.252 167.584  0.00  0.00    +0.000 N 
ATOM      6  C4  UNL     1     150.214 162.160 167.399  0.00  0.00    +0.000 A 
ATOM      7  C5  UNL     1     150.984 163.194 166.856  0.00  0.00    +0.000 A 
ATOM      8  N2  UNL     1     150.604 164.439 166.339  0.00  0.00    +0.000 N 
ATOM      9  C6  UNL     1     149.540 165.283 166.839  0.00  0.00    +0.000 C 
ATOM     10  C20 UNL     1     151.260 164.885 165.185  0.00  0.00    +0.000 C 
ATOM     11  O3  UNL     1     151.154 166.114 164.810  0.00  0.00    +0.000 OA
ATOM     12  C21 UNL     1     152.107 164.088 164.266  0.00  0.00    +0.000 C 
ATOM     13  C22 UNL     1     152.340 162.973 166.794  0.00  0.00    +0.000 A 
ATOM     14  C23 UNL     1     152.898 161.793 167.240  0.00  0.00    +0.000 A 
ATOM     15  C24 UNL     1     152.118 160.787 167.767  0.00  0.00    +0.000 A 
ATOM     16  C25 UNL     1     150.762 160.995 167.838  0.00  0.00    +0.000 A 
ATOM     17  C26 UNL     1     146.533 162.737 167.084  0.00  0.00    +0.000 C 
ATOM     18  C27 UNL     1     145.454 163.738 167.009  0.00  0.00    +0.000 C 
ATOM     19  C28 UNL     1     145.763 164.969 166.193  0.00  0.00    +0.000 C 
ATOM     20  C29 UNL     1     144.257 163.075 166.313  0.00  0.00    +0.000 C 
ATOM     21  C30 UNL     1     145.049 164.119 168.437  0.00  0.00    +0.000 C 
ATOM     22  H1  UNL     1     148.364 161.465 168.096  0.00  0.00    +0.000 HD
ENDROOT
BRANCH   9  23
ATOM     23  C7  UNL     1     149.833 165.950 168.109  0.00  0.00    +0.000 A 
ATOM     24  C8  UNL     1     150.686 167.025 168.255  0.00  0.00    +0.000 A 
ATOM     25  C9  UNL     1     150.874 167.590 169.488  0.00  0.00    +0.000 A 
ATOM     26  C10 UNL     1     150.225 167.113 170.628  0.00  0.00    +0.000 A 
ATOM     27  C18 UNL     1     149.374 166.048 170.507  0.00  0.00    +0.000 A 
ATOM     28  C19 UNL     1     149.188 165.484 169.268  0.00  0.00    +0.000 A 
BRANCH  26  29
ATOM     29  O2  UNL     1     150.414 167.679 171.870  0.00  0.00    +0.000 OA
BRANCH  29  30
ATOM     30  C11 UNL     1     151.313 168.759 171.992  0.00  0.00    +0.000 C 
BRANCH  30  31
ATOM     31  C12 UNL     1     150.536 169.993 172.293  0.00  0.00    +0.000 A 
ATOM     32  C13 UNL     1     150.248 170.923 171.299  0.00  0.00    +0.000 A 
ATOM     33  C14 UNL     1     149.532 172.051 171.600  0.00  0.00    +0.000 A 
ATOM     34  C15 UNL     1     149.081 172.305 172.873  0.00  0.00    +0.000 A 
ATOM     35  C16 UNL     1     149.388 171.357 173.839  0.00  0.00    +0.000 A 
ATOM     36  C17 UNL     1     150.099 170.225 173.559  0.00  0.00    +0.000 A 
ENDBRANCH  30  31
ENDBRANCH  29  30
ENDBRANCH  26  29
ENDBRANCH   9  23
TORSDOF 4
ENDMDL
MODEL 5
REMARK VINA RESULT:      -7.7      7.330     10.468
REMARK  Name = ./3D_structures\o5_MMV1580503_3D.pdb
REMARK  7 active torsions:
REMARK  status: ('A' for Active; 'I' for Inactive)
REMARK    1  A    between atoms: C6_9  and  C7_10
REMARK    2  A    between atoms: C10_13  and  O2_14
REMARK    3  A    between atoms: O2_14  and  C11_15
REMARK    4  A    between atoms: C11_15  and  C12_16
REMARK    5  A    between atoms: C20_24  and  C21_26
REMARK    6  A    between atoms: C27_32  and  C29_34
REMARK    7  A    between atoms: C27_32  and  C30_35
REMARK                            x       y       z     vdW  Elec       q    Type
REMARK                         _______ _______ _______ _____ _____    ______ ____
ROOT
ATOM      1  O1  UNL     1     159.460 158.079 169.390  0.00  0.00    +0.000 OA
ATOM      2  C1  UNL     1     158.351 158.573 169.653  0.00  0.00    +0.000 C 
ATOM      3  C2  UNL     1     157.568 159.148 168.547  0.00  0.00    +0.000 C 
ATOM      4  C3  UNL     1     156.364 159.577 168.810  0.00  0.00    +0.000 C 
ATOM      5  N1  UNL     1     155.394 160.181 167.914  0.00  0.00    +0.000 N 
ATOM      6  C4  UNL     1     155.656 160.826 166.673  0.00  0.00    +0.000 A 
ATOM      7  C5  UNL     1     156.918 160.844 166.070  0.00  0.00    +0.000 A 
ATOM      8  N2  UNL     1     158.148 160.343 166.515  0.00  0.00    +0.000 N 
ATOM      9  C6  UNL     1     158.353 159.125 167.268  0.00  0.00    +0.000 C 
ATOM     10  C20 UNL     1     159.286 161.125 166.278  0.00  0.00    +0.000 C 
ATOM     11  O3  UNL     1     160.464 160.619 166.419  0.00  0.00    +0.000 OA
ATOM     12  C21 UNL     1     159.331 162.549 165.871  0.00  0.00    +0.000 C 
ATOM     13  C22 UNL     1     156.997 161.462 164.843  0.00  0.00    +0.000 A 
ATOM     14  C23 UNL     1     155.889 162.033 164.253  0.00  0.00    +0.000 A 
ATOM     15  C24 UNL     1     154.656 162.006 164.868  0.00  0.00    +0.000 A 
ATOM     16  C25 UNL     1     154.562 161.390 166.093  0.00  0.00    +0.000 A 
ATOM     17  C26 UNL     1     155.710 159.515 170.174  0.00  0.00    +0.000 C 
ATOM     18  C27 UNL     1     156.374 158.614 171.132  0.00  0.00    +0.000 C 
ATOM     19  C28 UNL     1     157.879 158.562 171.041  0.00  0.00    +0.000 C 
ATOM     20  C29 UNL     1     156.067 159.134 172.543  0.00  0.00    +0.000 C 
ATOM     21  C30 UNL     1     155.771 157.214 170.978  0.00  0.00    +0.000 C 
ATOM     22  H1  UNL     1     154.399 160.142 168.203  0.00  0.00    +0.000 HD
ENDROOT
BRANCH   9  23
ATOM     23  C7  UNL     1     158.181 157.892 166.496  0.00  0.00    +0.000 A 
ATOM     24  C8  UNL     1     156.984 157.222 166.340  0.00  0.00    +0.000 A 
ATOM     25  C9  UNL     1     156.929 156.085 165.578  0.00  0.00    +0.000 A 
ATOM     26  C10 UNL     1     158.056 155.566 164.940  0.00  0.00    +0.000 A 
ATOM     27  C18 UNL     1     159.252 156.214 165.080  0.00  0.00    +0.000 A 
ATOM     28  C19 UNL     1     159.304 157.354 165.845  0.00  0.00    +0.000 A 
BRANCH  26  29
ATOM     29  O2  UNL     1     158.001 154.422 164.174  0.00  0.00    +0.000 OA
BRANCH  29  30
ATOM     30  C11 UNL     1     158.938 153.397 164.418  0.00  0.00    +0.000 C 
BRANCH  30  31
ATOM     31  C12 UNL     1     158.233 152.087 164.381  0.00  0.00    +0.000 A 
ATOM     32  C13 UNL     1     158.792 150.954 164.964  0.00  0.00    +0.000 A 
ATOM     33  C14 UNL     1     158.124 149.758 164.917  0.00  0.00    +0.000 A 
ATOM     34  C15 UNL     1     156.901 149.634 164.304  0.00  0.00    +0.000 A 
ATOM     35  C16 UNL     1     156.375 150.785 163.733  0.00  0.00    +0.000 A 
ATOM     36  C17 UNL     1     157.024 151.987 163.769  0.00  0.00    +0.000 A 
ENDBRANCH  30  31
ENDBRANCH  29  30
ENDBRANCH  26  29
ENDBRANCH   9  23
TORSDOF 4
ENDMDL
MODEL 6
REMARK VINA RESULT:      -7.7      4.954      7.658
REMARK  Name = ./3D_structures\o5_MMV1580503_3D.pdb
REMARK  7 active torsions:
REMARK  status: ('A' for Active; 'I' for Inactive)
REMARK    1  A    between atoms: C6_9  and  C7_10
REMARK    2  A    between atoms: C10_13  and  O2_14
REMARK    3  A    between atoms: O2_14  and  C11_15
REMARK    4  A    between atoms: C11_15  and  C12_16
REMARK    5  A    between atoms: C20_24  and  C21_26
REMARK    6  A    between atoms: C27_32  and  C29_34
REMARK    7  A    between atoms: C27_32  and  C30_35
REMARK                            x       y       z     vdW  Elec       q    Type
REMARK                         _______ _______ _______ _____ _____    ______ ____
ROOT
ATOM      1  O1  UNL     1     151.683 162.291 168.918  0.00  0.00    +0.000 OA
ATOM      2  C1  UNL     1     152.599 162.021 168.124  0.00  0.00    +0.000 C 
ATOM      3  C2  UNL     1     153.656 161.099 168.572  0.00  0.00    +0.000 C 
ATOM      4  C3  UNL     1     154.562 160.741 167.705  0.00  0.00    +0.000 C 
ATOM      5  N1  UNL     1     155.698 159.855 167.885  0.00  0.00    +0.000 N 
ATOM      6  C4  UNL     1     156.333 159.509 169.111  0.00  0.00    +0.000 A 
ATOM      7  C5  UNL     1     155.839 159.889 170.363  0.00  0.00    +0.000 A 
ATOM      8  N2  UNL     1     154.740 160.688 170.705  0.00  0.00    +0.000 N 
ATOM      9  C6  UNL     1     153.469 160.733 170.016  0.00  0.00    +0.000 C 
ATOM     10  C20 UNL     1     154.902 161.584 171.769  0.00  0.00    +0.000 C 
ATOM     11  O3  UNL     1     153.875 162.152 172.304  0.00  0.00    +0.000 OA
ATOM     12  C21 UNL     1     156.172 162.009 172.403  0.00  0.00    +0.000 C 
ATOM     13  C22 UNL     1     156.535 159.428 171.456  0.00  0.00    +0.000 A 
ATOM     14  C23 UNL     1     157.659 158.642 171.314  0.00  0.00    +0.000 A 
ATOM     15  C24 UNL     1     158.129 158.284 170.069  0.00  0.00    +0.000 A 
ATOM     16  C25 UNL     1     157.442 158.734 168.968  0.00  0.00    +0.000 A 
ATOM     17  C26 UNL     1     154.599 161.201 166.263  0.00  0.00    +0.000 C 
ATOM     18  C27 UNL     1     153.344 161.805 165.780  0.00  0.00    +0.000 C 
ATOM     19  C28 UNL     1     152.588 162.631 166.790  0.00  0.00    +0.000 C 
ATOM     20  C29 UNL     1     153.706 162.775 164.647  0.00  0.00    +0.000 C 
ATOM     21  C30 UNL     1     152.457 160.690 165.214  0.00  0.00    +0.000 C 
ATOM     22  H1  UNL     1     156.097 159.423 167.030  0.00  0.00    +0.000 HD
ENDROOT
BRANCH   9  23
ATOM     23  C7  UNL     1     152.620 159.557 170.218  0.00  0.00    +0.000 A 
ATOM     24  C8  UNL     1     152.787 158.347 169.577  0.00  0.00    +0.000 A 
ATOM     25  C9  UNL     1     151.947 157.301 169.855  0.00  0.00    +0.000 A 
ATOM     26  C10 UNL     1     150.907 157.412 170.780  0.00  0.00    +0.000 A 
ATOM     27  C18 UNL     1     150.725 158.602 171.429  0.00  0.00    +0.000 A 
ATOM     28  C19 UNL     1     151.569 159.649 171.147  0.00  0.00    +0.000 A 
BRANCH  26  29
ATOM     29  O2  UNL     1     150.062 156.361 171.060  0.00  0.00    +0.000 OA
BRANCH  29  30
ATOM     30  C11 UNL     1     150.518 155.331 171.908  0.00  0.00    +0.000 C 
BRANCH  30  31
ATOM     31  C12 UNL     1     149.755 154.090 171.605  0.00  0.00    +0.000 A 
ATOM     32  C13 UNL     1     148.967 153.476 172.574  0.00  0.00    +0.000 A 
ATOM     33  C14 UNL     1     148.274 152.333 172.272  0.00  0.00    +0.000 A 
ATOM     34  C15 UNL     1     148.330 151.760 171.024  0.00  0.00    +0.000 A 
ATOM     35  C16 UNL     1     149.125 152.400 170.084  0.00  0.00    +0.000 A 
ATOM     36  C17 UNL     1     149.823 153.539 170.364  0.00  0.00    +0.000 A 
ENDBRANCH  30  31
ENDBRANCH  29  30
ENDBRANCH  26  29
ENDBRANCH   9  23
TORSDOF 4
ENDMDL
MODEL 7
REMARK VINA RESULT:      -7.7      5.667     10.607
REMARK  Name = ./3D_structures\o5_MMV1580503_3D.pdb
REMARK  7 active torsions:
REMARK  status: ('A' for Active; 'I' for Inactive)
REMARK    1  A    between atoms: C6_9  and  C7_10
REMARK    2  A    between atoms: C10_13  and  O2_14
REMARK    3  A    between atoms: O2_14  and  C11_15
REMARK    4  A    between atoms: C11_15  and  C12_16
REMARK    5  A    between atoms: C20_24  and  C21_26
REMARK    6  A    between atoms: C27_32  and  C29_34
REMARK    7  A    between atoms: C27_32  and  C30_35
REMARK                            x       y       z     vdW  Elec       q    Type
REMARK                         _______ _______ _______ _____ _____    ______ ____
ROOT
ATOM      1  O1  UNL     1     154.213 159.094 168.381  0.00  0.00    +0.000 OA
ATOM      2  C1  UNL     1     155.195 159.031 169.139  0.00  0.00    +0.000 C 
ATOM      3  C2  UNL     1     156.533 158.919 168.533  0.00  0.00    +0.000 C 
ATOM      4  C3  UNL     1     157.567 158.952 169.327  0.00  0.00    +0.000 C 
ATOM      5  N1  UNL     1     158.977 158.861 168.992  0.00  0.00    +0.000 N 
ATOM      6  C4  UNL     1     159.547 158.303 167.814  0.00  0.00    +0.000 A 
ATOM      7  C5  UNL     1     158.784 157.875 166.723  0.00  0.00    +0.000 A 
ATOM      8  N2  UNL     1     157.395 157.821 166.546  0.00  0.00    +0.000 N 
ATOM      9  C6  UNL     1     156.434 158.782 167.041  0.00  0.00    +0.000 C 
ATOM     10  C20 UNL     1     156.872 156.698 165.894  0.00  0.00    +0.000 C 
ATOM     11  O3  UNL     1     155.654 156.702 165.467  0.00  0.00    +0.000 OA
ATOM     12  C21 UNL     1     157.561 155.416 165.616  0.00  0.00    +0.000 C 
ATOM     13  C22 UNL     1     159.487 157.411 165.634  0.00  0.00    +0.000 A 
ATOM     14  C23 UNL     1     160.865 157.369 165.632  0.00  0.00    +0.000 A 
ATOM     15  C24 UNL     1     161.595 157.793 166.721  0.00  0.00    +0.000 A 
ATOM     16  C25 UNL     1     160.907 158.263 167.814  0.00  0.00    +0.000 A 
ATOM     17  C26 UNL     1     157.491 159.108 170.830  0.00  0.00    +0.000 C 
ATOM     18  C27 UNL     1     156.188 159.580 171.332  0.00  0.00    +0.000 C 
ATOM     19  C28 UNL     1     154.980 159.068 170.589  0.00  0.00    +0.000 C 
ATOM     20  C29 UNL     1     156.032 159.065 172.770  0.00  0.00    +0.000 C 
ATOM     21  C30 UNL     1     156.205 161.113 171.354  0.00  0.00    +0.000 C 
ATOM     22  H1  UNL     1     159.650 159.242 169.684  0.00  0.00    +0.000 HD
ENDROOT
BRANCH   9  23
ATOM     23  C7  UNL     1     156.429 160.064 166.334  0.00  0.00    +0.000 A 
ATOM     24  C8  UNL     1     156.675 161.288 166.922  0.00  0.00    +0.000 A 
ATOM     25  C9  UNL     1     156.667 162.428 166.163  0.00  0.00    +0.000 A 
ATOM     26  C10 UNL     1     156.415 162.403 164.790  0.00  0.00    +0.000 A 
ATOM     27  C18 UNL     1     156.170 161.200 164.186  0.00  0.00    +0.000 A 
ATOM     28  C19 UNL     1     156.179 160.058 164.950  0.00  0.00    +0.000 A 
BRANCH  26  29
ATOM     29  O2  UNL     1     156.406 163.549 164.026  0.00  0.00    +0.000 OA
BRANCH  29  30
ATOM     30  C11 UNL     1     155.424 163.687 163.023  0.00  0.00    +0.000 C 
BRANCH  30  31
ATOM     31  C12 UNL     1     154.179 164.215 163.644  0.00  0.00    +0.000 A 
ATOM     32  C13 UNL     1     153.006 163.466 163.653  0.00  0.00    +0.000 A 
ATOM     33  C14 UNL     1     151.872 163.974 164.231  0.00  0.00    +0.000 A 
ATOM     34  C15 UNL     1     151.849 165.219 164.811  0.00  0.00    +0.000 A 
ATOM     35  C16 UNL     1     153.036 165.937 164.783  0.00  0.00    +0.000 A 
ATOM     36  C17 UNL     1     154.178 165.450 164.213  0.00  0.00    +0.000 A 
ENDBRANCH  30  31
ENDBRANCH  29  30
ENDBRANCH  26  29
ENDBRANCH   9  23
TORSDOF 4
ENDMDL
MODEL 8
REMARK VINA RESULT:      -7.5      5.104      8.449
REMARK  Name = ./3D_structures\o5_MMV1580503_3D.pdb
REMARK  7 active torsions:
REMARK  status: ('A' for Active; 'I' for Inactive)
REMARK    1  A    between atoms: C6_9  and  C7_10
REMARK    2  A    between atoms: C10_13  and  O2_14
REMARK    3  A    between atoms: O2_14  and  C11_15
REMARK    4  A    between atoms: C11_15  and  C12_16
REMARK    5  A    between atoms: C20_24  and  C21_26
REMARK    6  A    between atoms: C27_32  and  C29_34
REMARK    7  A    between atoms: C27_32  and  C30_35
REMARK                            x       y       z     vdW  Elec       q    Type
REMARK                         _______ _______ _______ _____ _____    ______ ____
ROOT
ATOM      1  O1  UNL     1     151.685 158.755 169.453  0.00  0.00    +0.000 OA
ATOM      2  C1  UNL     1     152.362 159.311 170.333  0.00  0.00    +0.000 C 
ATOM      3  C2  UNL     1     153.712 159.781 169.977  0.00  0.00    +0.000 C 
ATOM      4  C3  UNL     1     154.382 160.450 170.873  0.00  0.00    +0.000 C 
ATOM      5  N1  UNL     1     155.715 161.017 170.780  0.00  0.00    +0.000 N 
ATOM      6  C4  UNL     1     156.752 160.634 169.885  0.00  0.00    +0.000 A 
ATOM      7  C5  UNL     1     156.568 159.715 168.847  0.00  0.00    +0.000 A 
ATOM      8  N2  UNL     1     155.447 158.952 168.494  0.00  0.00    +0.000 N 
ATOM      9  C6  UNL     1     154.066 159.374 168.575  0.00  0.00    +0.000 C 
ATOM     10  C20 UNL     1     155.668 157.629 168.093  0.00  0.00    +0.000 C 
ATOM     11  O3  UNL     1     154.732 156.959 167.510  0.00  0.00    +0.000 OA
ATOM     12  C21 UNL     1     156.906 156.831 168.264  0.00  0.00    +0.000 C 
ATOM     13  C22 UNL     1     157.653 159.492 168.032  0.00  0.00    +0.000 A 
ATOM     14  C23 UNL     1     158.853 160.139 168.239  0.00  0.00    +0.000 A 
ATOM     15  C24 UNL     1     159.012 161.039 169.271  0.00  0.00    +0.000 A 
ATOM     16  C25 UNL     1     157.935 161.274 170.091  0.00  0.00    +0.000 A 
ATOM     17  C26 UNL     1     153.866 160.787 172.256  0.00  0.00    +0.000 C 
ATOM     18  C27 UNL     1     152.411 160.625 172.423  0.00  0.00    +0.000 C 
ATOM     19  C28 UNL     1     151.794 159.470 171.676  0.00  0.00    +0.000 C 
ATOM     20  C29 UNL     1     152.146 160.340 173.908  0.00  0.00    +0.000 C 
ATOM     21  C30 UNL     1     151.730 161.945 172.043  0.00  0.00    +0.000 C 
ATOM     22  H1  UNL     1     155.945 161.788 171.437  0.00  0.00    +0.000 HD
ENDROOT
BRANCH   9  23
ATOM     23  C7  UNL     1     153.664 160.352 167.562  0.00  0.00    +0.000 A 
ATOM     24  C8  UNL     1     153.557 161.711 167.779  0.00  0.00    +0.000 A 
ATOM     25  C9  UNL     1     153.192 162.543 166.753  0.00  0.00    +0.000 A 
ATOM     26  C10 UNL     1     152.918 162.063 165.472  0.00  0.00    +0.000 A 
ATOM     27  C18 UNL     1     153.018 160.719 165.234  0.00  0.00    +0.000 A 
ATOM     28  C19 UNL     1     153.384 159.888 166.265  0.00  0.00    +0.000 A 
BRANCH  26  29
ATOM     29  O2  UNL     1     152.550 162.898 164.440  0.00  0.00    +0.000 OA
BRANCH  29  30
ATOM     30  C11 UNL     1     152.718 164.289 164.602  0.00  0.00    +0.000 C 
BRANCH  30  31
ATOM     31  C12 UNL     1     153.975 164.700 163.920  0.00  0.00    +0.000 A 
ATOM     32  C13 UNL     1     154.513 163.940 162.884  0.00  0.00    +0.000 A 
ATOM     33  C14 UNL     1     155.672 164.338 162.272  0.00  0.00    +0.000 A 
ATOM     34  C15 UNL     1     156.337 165.480 162.650  0.00  0.00    +0.000 A 
ATOM     35  C16 UNL     1     155.772 166.211 163.685  0.00  0.00    +0.000 A 
ATOM     36  C17 UNL     1     154.617 165.833 164.309  0.00  0.00    +0.000 A 
ENDBRANCH  30  31
ENDBRANCH  29  30
ENDBRANCH  26  29
ENDBRANCH   9  23
TORSDOF 4
ENDMDL
MODEL 9
REMARK VINA RESULT:      -7.4      5.135      8.301
REMARK  Name = ./3D_structures\o5_MMV1580503_3D.pdb
REMARK  7 active torsions:
REMARK  status: ('A' for Active; 'I' for Inactive)
REMARK    1  A    between atoms: C6_9  and  C7_10
REMARK    2  A    between atoms: C10_13  and  O2_14
REMARK    3  A    between atoms: O2_14  and  C11_15
REMARK    4  A    between atoms: C11_15  and  C12_16
REMARK    5  A    between atoms: C20_24  and  C21_26
REMARK    6  A    between atoms: C27_32  and  C29_34
REMARK    7  A    between atoms: C27_32  and  C30_35
REMARK                            x       y       z     vdW  Elec       q    Type
REMARK                         _______ _______ _______ _____ _____    ______ ____
ROOT
ATOM      1  O1  UNL     1     151.906 160.275 167.019  0.00  0.00    +0.000 OA
ATOM      2  C1  UNL     1     153.117 160.089 167.218  0.00  0.00    +0.000 C 
ATOM      3  C2  UNL     1     153.571 159.897 168.605  0.00  0.00    +0.000 C 
ATOM      4  C3  UNL     1     154.827 159.605 168.801  0.00  0.00    +0.000 C 
ATOM      5  N1  UNL     1     155.525 159.370 170.053  0.00  0.00    +0.000 N 
ATOM      6  C4  UNL     1     155.133 159.803 171.350  0.00  0.00    +0.000 A 
ATOM      7  C5  UNL     1     153.906 160.422 171.613  0.00  0.00    +0.000 A 
ATOM      8  N2  UNL     1     152.874 160.804 170.747  0.00  0.00    +0.000 N 
ATOM      9  C6  UNL     1     152.437 160.086 169.570  0.00  0.00    +0.000 C 
ATOM     10  C20 UNL     1     152.248 162.032 170.992  0.00  0.00    +0.000 C 
ATOM     11  O3  UNL     1     151.135 162.324 170.410  0.00  0.00    +0.000 OA
ATOM     12  C21 UNL     1     152.722 163.123 171.878  0.00  0.00    +0.000 C 
ATOM     13  C22 UNL     1     153.651 160.732 172.929  0.00  0.00    +0.000 A 
ATOM     14  C23 UNL     1     154.563 160.448 173.925  0.00  0.00    +0.000 A 
ATOM     15  C24 UNL     1     155.767 159.841 173.641  0.00  0.00    +0.000 A 
ATOM     16  C25 UNL     1     156.034 159.523 172.331  0.00  0.00    +0.000 A 
ATOM     17  C26 UNL     1     155.853 159.439 167.700  0.00  0.00    +0.000 C 
ATOM     18  C27 UNL     1     155.281 159.275 166.351  0.00  0.00    +0.000 C 
ATOM     19  C28 UNL     1     154.032 160.072 166.072  0.00  0.00    +0.000 C 
ATOM     20  C29 UNL     1     156.324 159.781 165.344  0.00  0.00    +0.000 C 
ATOM     21  C30 UNL     1     155.040 157.781 166.106  0.00  0.00    +0.000 C 
ATOM     22  H1  UNL     1     156.407 158.826 170.004  0.00  0.00    +0.000 HD
ENDROOT
BRANCH   9  23
ATOM     23  C7  UNL     1     151.690 158.856 169.845  0.00  0.00    +0.000 A 
ATOM     24  C8  UNL     1     152.246 157.594 169.898  0.00  0.00    +0.000 A 
ATOM     25  C9  UNL     1     151.459 156.510 170.184  0.00  0.00    +0.000 A 
ATOM     26  C10 UNL     1     150.091 156.631 170.430  0.00  0.00    +0.000 A 
ATOM     27  C18 UNL     1     149.519 157.873 170.383  0.00  0.00    +0.000 A 
ATOM     28  C19 UNL     1     150.311 158.959 170.096  0.00  0.00    +0.000 A 
BRANCH  26  29
ATOM     29  O2  UNL     1     149.299 155.541 170.717  0.00  0.00    +0.000 OA
BRANCH  29  30
ATOM     30  C11 UNL     1     149.839 154.249 170.552  0.00  0.00    +0.000 C 
BRANCH  30  31
ATOM     31  C12 UNL     1     149.104 153.308 171.441  0.00  0.00    +0.000 A 
ATOM     32  C13 UNL     1     149.057 153.509 172.818  0.00  0.00    +0.000 A 
ATOM     33  C14 UNL     1     148.375 152.629 173.617  0.00  0.00    +0.000 A 
ATOM     34  C15 UNL     1     147.725 151.534 173.099  0.00  0.00    +0.000 A 
ATOM     35  C16 UNL     1     147.794 151.366 171.724  0.00  0.00    +0.000 A 
ATOM     36  C17 UNL     1     148.468 152.232 170.909  0.00  0.00    +0.000 A 
ENDBRANCH  30  31
ENDBRANCH  29  30
ENDBRANCH  26  29
ENDBRANCH   9  23
TORSDOF 4
ENDMDL
