MODEL 1
REMARK VINA RESULT:      -5.8      0.000      0.000
REMARK  Name = ./3D_structures\o60_MMV010036_3D.pdb
REMARK  9 active torsions:
REMARK  status: ('A' for Active; 'I' for Inactive)
REMARK    1  A    between atoms: C1_2  and  C2_5
REMARK    2  A    between atoms: N1_3  and  O2_4
REMARK    3  A    between atoms: C3_6  and  C4_7
REMARK    4  A    between atoms: C7_10  and  C8_11
REMARK    5  A    between atoms: C8_11  and  N2_12
REMARK    6  A    between atoms: N2_12  and  C9_13
REMARK    7  A    between atoms: C9_13  and  C10_14
REMARK    8  A    between atoms: C10_14  and  C11_15
REMARK    9  A    between atoms: C12_16  and  C19_24
REMARK                            x       y       z     vdW  Elec       q    Type
REMARK                         _______ _______ _______ _____ _____    ______ ____
ROOT
ATOM      1  C8  UNL     1     156.358 158.724 172.410  0.00  0.00    +0.000 C 
ENDROOT
BRANCH   1   5
ATOM      2  C4  UNL     1     157.393 157.412 168.445  0.00  0.00    +0.000 A 
ATOM      3  C5  UNL     1     156.222 156.995 169.040  0.00  0.00    +0.000 A 
ATOM      4  C6  UNL     1     155.896 157.413 170.298  0.00  0.00    +0.000 A 
ATOM      5  C7  UNL     1     156.716 158.272 171.040  0.00  0.00    +0.000 A 
ATOM      6  C20 UNL     1     157.875 158.667 170.411  0.00  0.00    +0.000 A 
ATOM      7  C21 UNL     1     158.214 158.255 169.152  0.00  0.00    +0.000 A 
BRANCH   2   9
ATOM      8  C2  UNL     1     156.796 156.539 166.216  0.00  0.00    +0.000 C 
ATOM      9  C3  UNL     1     157.698 156.933 167.086  0.00  0.00    +0.000 C 
BRANCH   8  11
ATOM     10  O1  UNL     1     157.739 156.803 164.040  0.00  0.00    +0.000 OA
ATOM     11  C1  UNL     1     157.184 156.073 164.875  0.00  0.00    +0.000 C 
ATOM     12  N1  UNL     1     156.908 154.728 164.524  0.00  0.00    +0.000 N 
ATOM     13  H1  UNL     1     156.432 154.105 165.241  0.00  0.00    +0.000 HD
BRANCH  12  14
ATOM     14  O2  UNL     1     157.215 154.184 163.325  0.00  0.00    +0.000 OA
ATOM     15  H2  UNL     1     156.434 154.117 162.716  0.00  0.00    +0.000 HD
ENDBRANCH  12  14
ENDBRANCH   8  11
ENDBRANCH   2   9
ENDBRANCH   1   5
BRANCH   1  16
ATOM     16  N2  UNL     1     155.866 160.056 172.363  0.00  0.00    +0.000 NA
ATOM     17  H9  UNL     1     156.304 160.684 171.699  0.00  0.00    +0.000 HD
BRANCH  16  18
ATOM     18  C9  UNL     1     154.465 160.210 172.586  0.00  0.00    +0.000 C 
BRANCH  18  19
ATOM     19  C10 UNL     1     153.793 161.145 171.612  0.00  0.00    +0.000 C 
BRANCH  19  20
ATOM     20  C11 UNL     1     153.398 160.329 170.426  0.00  0.00    +0.000 A 
ATOM     21  C12 UNL     1     152.300 159.522 170.308  0.00  0.00    +0.000 A 
ATOM     22  N3  UNL     1     152.332 158.981 169.086  0.00  0.00    +0.000 N 
ATOM     23  C13 UNL     1     153.397 159.395 168.398  0.00  0.00    +0.000 A 
ATOM     24  C14 UNL     1     154.085 160.248 169.228  0.00  0.00    +0.000 A 
ATOM     25  C15 UNL     1     155.245 160.837 168.777  0.00  0.00    +0.000 A 
ATOM     26  C16 UNL     1     155.687 160.561 167.517  0.00  0.00    +0.000 A 
ATOM     27  C17 UNL     1     155.017 159.716 166.679  0.00  0.00    +0.000 A 
ATOM     28  C18 UNL     1     153.850 159.122 167.127  0.00  0.00    +0.000 A 
ATOM     29  C19 UNL     1     151.245 159.288 171.370  0.00  0.00    +0.000 C 
ATOM     30  H14 UNL     1     151.623 158.320 168.703  0.00  0.00    +0.000 HD
ENDBRANCH  19  20
ENDBRANCH  18  19
ENDBRANCH  16  18
ENDBRANCH   1  16
TORSDOF 8
ENDMDL
MODEL 2
REMARK VINA RESULT:      -5.6      3.441      6.394
REMARK  Name = ./3D_structures\o60_MMV010036_3D.pdb
REMARK  9 active torsions:
REMARK  status: ('A' for Active; 'I' for Inactive)
REMARK    1  A    between atoms: C1_2  and  C2_5
REMARK    2  A    between atoms: N1_3  and  O2_4
REMARK    3  A    between atoms: C3_6  and  C4_7
REMARK    4  A    between atoms: C7_10  and  C8_11
REMARK    5  A    between atoms: C8_11  and  N2_12
REMARK    6  A    between atoms: N2_12  and  C9_13
REMARK    7  A    between atoms: C9_13  and  C10_14
REMARK    8  A    between atoms: C10_14  and  C11_15
REMARK    9  A    between atoms: C12_16  and  C19_24
REMARK                            x       y       z     vdW  Elec       q    Type
REMARK                         _______ _______ _______ _____ _____    ______ ____
ROOT
ATOM      1  C8  UNL     1     157.173 161.109 166.381  0.00  0.00    +0.000 C 
ENDROOT
BRANCH   1   5
ATOM      2  C4  UNL     1     153.686 159.550 168.363  0.00  0.00    +0.000 A 
ATOM      3  C5  UNL     1     153.980 159.185 167.066  0.00  0.00    +0.000 A 
ATOM      4  C6  UNL     1     155.088 159.681 166.441  0.00  0.00    +0.000 A 
ATOM      5  C7  UNL     1     155.969 160.570 167.067  0.00  0.00    +0.000 A 
ATOM      6  C20 UNL     1     155.642 160.909 168.360  0.00  0.00    +0.000 A 
ATOM      7  C21 UNL     1     154.535 160.421 168.999  0.00  0.00    +0.000 A 
BRANCH   2   9
ATOM      8  C2  UNL     1     152.469 157.911 169.748  0.00  0.00    +0.000 C 
ATOM      9  C3  UNL     1     152.481 158.986 168.993  0.00  0.00    +0.000 C 
BRANCH   8  11
ATOM     10  O1  UNL     1     151.029 156.214 170.608  0.00  0.00    +0.000 OA
ATOM     11  C1  UNL     1     151.220 157.411 170.343  0.00  0.00    +0.000 C 
ATOM     12  N1  UNL     1     150.190 158.341 170.626  0.00  0.00    +0.000 N 
ATOM     13  H1  UNL     1     150.356 159.365 170.397  0.00  0.00    +0.000 HD
BRANCH  12  14
ATOM     14  O2  UNL     1     148.999 158.005 171.171  0.00  0.00    +0.000 OA
ATOM     15  H2  UNL     1     149.034 157.162 171.695  0.00  0.00    +0.000 HD
ENDBRANCH  12  14
ENDBRANCH   8  11
ENDBRANCH   2   9
ENDBRANCH   1   5
BRANCH   1  16
ATOM     16  N2  UNL     1     158.344 160.543 166.953  0.00  0.00    +0.000 NA
ATOM     17  H9  UNL     1     158.387 160.499 167.964  0.00  0.00    +0.000 HD
BRANCH  16  18
ATOM     18  C9  UNL     1     158.934 159.467 166.224  0.00  0.00    +0.000 C 
BRANCH  18  19
ATOM     19  C10 UNL     1     159.393 158.324 167.093  0.00  0.00    +0.000 C 
BRANCH  19  20
ATOM     20  C11 UNL     1     158.173 157.740 167.726  0.00  0.00    +0.000 A 
ATOM     21  C12 UNL     1     157.276 156.881 167.153  0.00  0.00    +0.000 A 
ATOM     22  N3  UNL     1     156.340 156.613 168.069  0.00  0.00    +0.000 N 
ATOM     23  C13 UNL     1     156.581 157.254 169.213  0.00  0.00    +0.000 A 
ATOM     24  C14 UNL     1     157.736 157.973 169.017  0.00  0.00    +0.000 A 
ATOM     25  C15 UNL     1     158.233 158.742 170.046  0.00  0.00    +0.000 A 
ATOM     26  C16 UNL     1     157.569 158.775 171.236  0.00  0.00    +0.000 A 
ATOM     27  C17 UNL     1     156.420 158.068 171.449  0.00  0.00    +0.000 A 
ATOM     28  C18 UNL     1     155.917 157.292 170.419  0.00  0.00    +0.000 A 
ATOM     29  C19 UNL     1     157.337 156.337 165.740  0.00  0.00    +0.000 C 
ATOM     30  H14 UNL     1     155.521 155.985 167.924  0.00  0.00    +0.000 HD
ENDBRANCH  19  20
ENDBRANCH  18  19
ENDBRANCH  16  18
ENDBRANCH   1  16
TORSDOF 8
ENDMDL
MODEL 3
REMARK VINA RESULT:      -5.5      1.367      2.418
REMARK  Name = ./3D_structures\o60_MMV010036_3D.pdb
REMARK  9 active torsions:
REMARK  status: ('A' for Active; 'I' for Inactive)
REMARK    1  A    between atoms: C1_2  and  C2_5
REMARK    2  A    between atoms: N1_3  and  O2_4
REMARK    3  A    between atoms: C3_6  and  C4_7
REMARK    4  A    between atoms: C7_10  and  C8_11
REMARK    5  A    between atoms: C8_11  and  N2_12
REMARK    6  A    between atoms: N2_12  and  C9_13
REMARK    7  A    between atoms: C9_13  and  C10_14
REMARK    8  A    between atoms: C10_14  and  C11_15
REMARK    9  A    between atoms: C12_16  and  C19_24
REMARK                            x       y       z     vdW  Elec       q    Type
REMARK                         _______ _______ _______ _____ _____    ______ ____
ROOT
ATOM      1  C8  UNL     1     156.336 158.541 172.281  0.00  0.00    +0.000 C 
ENDROOT
BRANCH   1   5
ATOM      2  C4  UNL     1     157.294 157.256 168.288  0.00  0.00    +0.000 A 
ATOM      3  C5  UNL     1     158.154 158.075 168.988  0.00  0.00    +0.000 A 
ATOM      4  C6  UNL     1     157.847 158.480 170.255  0.00  0.00    +0.000 A 
ATOM      5  C7  UNL     1     156.667 158.095 170.902  0.00  0.00    +0.000 A 
ATOM      6  C20 UNL     1     155.835 157.278 170.170  0.00  0.00    +0.000 A 
ATOM      7  C21 UNL     1     156.129 156.865 168.900  0.00  0.00    +0.000 A 
BRANCH   2   9
ATOM      8  C2  UNL     1     156.828 156.392 166.024  0.00  0.00    +0.000 C 
ATOM      9  C3  UNL     1     157.671 156.846 166.924  0.00  0.00    +0.000 C 
BRANCH   8  11
ATOM     10  O1  UNL     1     157.837 156.791 163.900  0.00  0.00    +0.000 OA
ATOM     11  C1  UNL     1     157.285 156.002 164.681  0.00  0.00    +0.000 C 
ATOM     12  N1  UNL     1     157.083 154.663 164.263  0.00  0.00    +0.000 N 
ATOM     13  H1  UNL     1     156.609 153.990 164.935  0.00  0.00    +0.000 HD
BRANCH  12  14
ATOM     14  O2  UNL     1     157.458 154.185 163.055  0.00  0.00    +0.000 OA
ATOM     15  H2  UNL     1     157.227 153.229 162.926  0.00  0.00    +0.000 HD
ENDBRANCH  12  14
ENDBRANCH   8  11
ENDBRANCH   2   9
ENDBRANCH   1   5
BRANCH   1  16
ATOM     16  N2  UNL     1     155.835 159.870 172.248  0.00  0.00    +0.000 NA
ATOM     17  H9  UNL     1     156.509 160.612 172.100  0.00  0.00    +0.000 HD
BRANCH  16  18
ATOM     18  C9  UNL     1     154.543 160.032 171.665  0.00  0.00    +0.000 C 
BRANCH  18  19
ATOM     19  C10 UNL     1     154.380 161.318 170.895  0.00  0.00    +0.000 C 
BRANCH  19  20
ATOM     20  C11 UNL     1     155.205 161.193 169.657  0.00  0.00    +0.000 A 
ATOM     21  C12 UNL     1     156.429 161.754 169.421  0.00  0.00    +0.000 A 
ATOM     22  N3  UNL     1     156.806 161.388 168.191  0.00  0.00    +0.000 N 
ATOM     23  C13 UNL     1     155.887 160.614 167.611  0.00  0.00    +0.000 A 
ATOM     24  C14 UNL     1     154.866 160.479 168.522  0.00  0.00    +0.000 A 
ATOM     25  C15 UNL     1     153.766 159.720 168.191  0.00  0.00    +0.000 A 
ATOM     26  C16 UNL     1     153.711 159.119 166.969  0.00  0.00    +0.000 A 
ATOM     27  C17 UNL     1     154.716 159.243 166.051  0.00  0.00    +0.000 A 
ATOM     28  C18 UNL     1     155.825 160.004 166.378  0.00  0.00    +0.000 A 
ATOM     29  C19 UNL     1     157.211 162.629 170.379  0.00  0.00    +0.000 C 
ATOM     30  H14 UNL     1     157.699 161.663 167.730  0.00  0.00    +0.000 HD
ENDBRANCH  19  20
ENDBRANCH  18  19
ENDBRANCH  16  18
ENDBRANCH   1  16
TORSDOF 8
ENDMDL
MODEL 4
REMARK VINA RESULT:      -5.4      1.737      3.749
REMARK  Name = ./3D_structures\o60_MMV010036_3D.pdb
REMARK  9 active torsions:
REMARK  status: ('A' for Active; 'I' for Inactive)
REMARK    1  A    between atoms: C1_2  and  C2_5
REMARK    2  A    between atoms: N1_3  and  O2_4
REMARK    3  A    between atoms: C3_6  and  C4_7
REMARK    4  A    between atoms: C7_10  and  C8_11
REMARK    5  A    between atoms: C8_11  and  N2_12
REMARK    6  A    between atoms: N2_12  and  C9_13
REMARK    7  A    between atoms: C9_13  and  C10_14
REMARK    8  A    between atoms: C10_14  and  C11_15
REMARK    9  A    between atoms: C12_16  and  C19_24
REMARK                            x       y       z     vdW  Elec       q    Type
REMARK                         _______ _______ _______ _____ _____    ______ ____
ROOT
ATOM      1  C8  UNL     1     153.518 160.386 170.475  0.00  0.00    +0.000 C 
ENDROOT
BRANCH   1   5
ATOM      2  C4  UNL     1     155.450 158.144 167.351  0.00  0.00    +0.000 A 
ATOM      3  C5  UNL     1     155.582 159.515 167.418  0.00  0.00    +0.000 A 
ATOM      4  C6  UNL     1     154.968 160.223 168.410  0.00  0.00    +0.000 A 
ATOM      5  C7  UNL     1     154.186 159.610 169.397  0.00  0.00    +0.000 A 
ATOM      6  C20 UNL     1     154.080 158.242 169.296  0.00  0.00    +0.000 A 
ATOM      7  C21 UNL     1     154.689 157.519 168.307  0.00  0.00    +0.000 A 
BRANCH   2   9
ATOM      8  C2  UNL     1     157.015 156.469 166.440  0.00  0.00    +0.000 C 
ATOM      9  C3  UNL     1     156.133 157.426 166.262  0.00  0.00    +0.000 C 
BRANCH   8  11
ATOM     10  O1  UNL     1     158.835 155.994 164.972  0.00  0.00    +0.000 OA
ATOM     11  C1  UNL     1     157.654 155.799 165.296  0.00  0.00    +0.000 C 
ATOM     12  N1  UNL     1     156.882 154.890 164.532  0.00  0.00    +0.000 N 
ATOM     13  H1  UNL     1     155.870 154.725 164.811  0.00  0.00    +0.000 HD
BRANCH  12  14
ATOM     14  O2  UNL     1     157.355 154.214 163.460  0.00  0.00    +0.000 OA
ATOM     15  H2  UNL     1     157.835 154.795 162.814  0.00  0.00    +0.000 HD
ENDBRANCH  12  14
ENDBRANCH   8  11
ENDBRANCH   2   9
ENDBRANCH   1   5
BRANCH   1  16
ATOM     16  N2  UNL     1     153.914 159.883 171.743  0.00  0.00    +0.000 NA
ATOM     17  H9  UNL     1     154.220 158.918 171.780  0.00  0.00    +0.000 HD
BRANCH  16  18
ATOM     18  C9  UNL     1     154.574 160.813 172.601  0.00  0.00    +0.000 C 
BRANCH  18  19
ATOM     19  C10 UNL     1     155.973 160.402 172.984  0.00  0.00    +0.000 C 
BRANCH  19  20
ATOM     20  C11 UNL     1     156.869 160.804 171.859  0.00  0.00    +0.000 A 
ATOM     21  C12 UNL     1     157.249 162.073 171.521  0.00  0.00    +0.000 A 
ATOM     22  N3  UNL     1     158.051 161.978 170.455  0.00  0.00    +0.000 N 
ATOM     23  C13 UNL     1     158.213 160.709 170.079  0.00  0.00    +0.000 A 
ATOM     24  C14 UNL     1     157.473 159.950 170.955  0.00  0.00    +0.000 A 
ATOM     25  C15 UNL     1     157.454 158.581 170.808  0.00  0.00    +0.000 A 
ATOM     26  C16 UNL     1     158.167 158.007 169.799  0.00  0.00    +0.000 A 
ATOM     27  C17 UNL     1     158.907 158.745 168.919  0.00  0.00    +0.000 A 
ATOM     28  C18 UNL     1     158.932 160.121 169.062  0.00  0.00    +0.000 A 
ATOM     29  C19 UNL     1     156.836 163.348 172.226  0.00  0.00    +0.000 C 
ATOM     30  H14 UNL     1     158.500 162.783 169.967  0.00  0.00    +0.000 HD
ENDBRANCH  19  20
ENDBRANCH  18  19
ENDBRANCH  16  18
ENDBRANCH   1  16
TORSDOF 8
ENDMDL
MODEL 5
REMARK VINA RESULT:      -5.4      3.682      6.616
REMARK  Name = ./3D_structures\o60_MMV010036_3D.pdb
REMARK  9 active torsions:
REMARK  status: ('A' for Active; 'I' for Inactive)
REMARK    1  A    between atoms: C1_2  and  C2_5
REMARK    2  A    between atoms: N1_3  and  O2_4
REMARK    3  A    between atoms: C3_6  and  C4_7
REMARK    4  A    between atoms: C7_10  and  C8_11
REMARK    5  A    between atoms: C8_11  and  N2_12
REMARK    6  A    between atoms: N2_12  and  C9_13
REMARK    7  A    between atoms: C9_13  and  C10_14
REMARK    8  A    between atoms: C10_14  and  C11_15
REMARK    9  A    between atoms: C12_16  and  C19_24
REMARK                            x       y       z     vdW  Elec       q    Type
REMARK                         _______ _______ _______ _____ _____    ______ ____
ROOT
ATOM      1  C8  UNL     1     157.209 158.633 165.670  0.00  0.00    +0.000 C 
ENDROOT
BRANCH   1   5
ATOM      2  C4  UNL     1     153.979 159.070 168.479  0.00  0.00    +0.000 A 
ATOM      3  C5  UNL     1     154.314 157.829 167.981  0.00  0.00    +0.000 A 
ATOM      4  C6  UNL     1     155.340 157.694 167.090  0.00  0.00    +0.000 A 
ATOM      5  C7  UNL     1     156.094 158.785 166.641  0.00  0.00    +0.000 A 
ATOM      6  C20 UNL     1     155.729 160.005 167.162  0.00  0.00    +0.000 A 
ATOM      7  C21 UNL     1     154.703 160.156 168.054  0.00  0.00    +0.000 A 
BRANCH   2   9
ATOM      8  C2  UNL     1     152.132 158.145 169.827  0.00  0.00    +0.000 C 
ATOM      9  C3  UNL     1     152.865 159.163 169.438  0.00  0.00    +0.000 C 
BRANCH   8  11
ATOM     10  O1  UNL     1     151.120 159.056 171.787  0.00  0.00    +0.000 OA
ATOM     11  C1  UNL     1     151.034 158.321 170.791  0.00  0.00    +0.000 C 
ATOM     12  N1  UNL     1     149.824 157.618 170.569  0.00  0.00    +0.000 N 
ATOM     13  H1  UNL     1     149.754 156.989 169.716  0.00  0.00    +0.000 HD
BRANCH  12  14
ATOM     14  O2  UNL     1     148.746 157.697 171.382  0.00  0.00    +0.000 OA
ATOM     15  H2  UNL     1     148.251 156.840 171.457  0.00  0.00    +0.000 HD
ENDBRANCH  12  14
ENDBRANCH   8  11
ENDBRANCH   2   9
ENDBRANCH   1   5
BRANCH   1  16
ATOM     16  N2  UNL     1     158.443 158.933 166.306  0.00  0.00    +0.000 NA
ATOM     17  H9  UNL     1     158.607 159.900 166.560  0.00  0.00    +0.000 HD
BRANCH  16  18
ATOM     18  C9  UNL     1     158.948 157.930 167.187  0.00  0.00    +0.000 C 
BRANCH  18  19
ATOM     19  C10 UNL     1     159.861 158.466 168.260  0.00  0.00    +0.000 C 
BRANCH  19  20
ATOM     20  C11 UNL     1     159.065 159.443 169.061  0.00  0.00    +0.000 A 
ATOM     21  C12 UNL     1     159.224 160.800 169.102  0.00  0.00    +0.000 A 
ATOM     22  N3  UNL     1     158.305 161.285 169.944  0.00  0.00    +0.000 N 
ATOM     23  C13 UNL     1     157.553 160.310 170.457  0.00  0.00    +0.000 A 
ATOM     24  C14 UNL     1     158.017 159.137 169.911  0.00  0.00    +0.000 A 
ATOM     25  C15 UNL     1     157.418 157.948 170.262  0.00  0.00    +0.000 A 
ATOM     26  C16 UNL     1     156.379 157.958 171.145  0.00  0.00    +0.000 A 
ATOM     27  C17 UNL     1     155.905 159.114 171.697  0.00  0.00    +0.000 A 
ATOM     28  C18 UNL     1     156.502 160.312 171.347  0.00  0.00    +0.000 A 
ATOM     29  C19 UNL     1     160.253 161.603 168.333  0.00  0.00    +0.000 C 
ATOM     30  H14 UNL     1     158.180 162.292 170.182  0.00  0.00    +0.000 HD
ENDBRANCH  19  20
ENDBRANCH  18  19
ENDBRANCH  16  18
ENDBRANCH   1  16
TORSDOF 8
ENDMDL
MODEL 6
REMARK VINA RESULT:      -5.4      2.012      3.654
REMARK  Name = ./3D_structures\o60_MMV010036_3D.pdb
REMARK  9 active torsions:
REMARK  status: ('A' for Active; 'I' for Inactive)
REMARK    1  A    between atoms: C1_2  and  C2_5
REMARK    2  A    between atoms: N1_3  and  O2_4
REMARK    3  A    between atoms: C3_6  and  C4_7
REMARK    4  A    between atoms: C7_10  and  C8_11
REMARK    5  A    between atoms: C8_11  and  N2_12
REMARK    6  A    between atoms: N2_12  and  C9_13
REMARK    7  A    between atoms: C9_13  and  C10_14
REMARK    8  A    between atoms: C10_14  and  C11_15
REMARK    9  A    between atoms: C12_16  and  C19_24
REMARK                            x       y       z     vdW  Elec       q    Type
REMARK                         _______ _______ _______ _____ _____    ______ ____
ROOT
ATOM      1  C8  UNL     1     153.461 160.552 166.007  0.00  0.00    +0.000 C 
ENDROOT
BRANCH   1   5
ATOM      2  C4  UNL     1     156.761 157.818 165.622  0.00  0.00    +0.000 A 
ATOM      3  C5  UNL     1     155.497 157.357 165.922  0.00  0.00    +0.000 A 
ATOM      4  C6  UNL     1     154.452 158.227 166.043  0.00  0.00    +0.000 A 
ATOM      5  C7  UNL     1     154.601 159.608 165.873  0.00  0.00    +0.000 A 
ATOM      6  C20 UNL     1     155.877 160.029 165.574  0.00  0.00    +0.000 A 
ATOM      7  C21 UNL     1     156.934 159.169 165.451  0.00  0.00    +0.000 A 
BRANCH   2   9
ATOM      8  C2  UNL     1     157.833 155.793 164.706  0.00  0.00    +0.000 C 
ATOM      9  C3  UNL     1     157.854 156.839 165.502  0.00  0.00    +0.000 C 
BRANCH   8  11
ATOM     10  O1  UNL     1     160.150 155.234 164.621  0.00  0.00    +0.000 OA
ATOM     11  C1  UNL     1     158.968 154.860 164.643  0.00  0.00    +0.000 C 
ATOM     12  N1  UNL     1     158.696 153.470 164.607  0.00  0.00    +0.000 N 
ATOM     13  H1  UNL     1     157.682 153.152 164.625  0.00  0.00    +0.000 HD
BRANCH  12  14
ATOM     14  O2  UNL     1     159.652 152.515 164.548  0.00  0.00    +0.000 OA
ATOM     15  H2  UNL     1     159.383 151.728 164.007  0.00  0.00    +0.000 HD
ENDBRANCH  12  14
ENDBRANCH   8  11
ENDBRANCH   2   9
ENDBRANCH   1   5
BRANCH   1  16
ATOM     16  N2  UNL     1     152.923 160.469 167.320  0.00  0.00    +0.000 NA
ATOM     17  H9  UNL     1     152.547 159.573 167.607  0.00  0.00    +0.000 HD
BRANCH  16  18
ATOM     18  C9  UNL     1     153.584 161.252 168.313  0.00  0.00    +0.000 C 
BRANCH  18  19
ATOM     19  C10 UNL     1     153.552 160.640 169.691  0.00  0.00    +0.000 C 
BRANCH  19  20
ATOM     20  C11 UNL     1     154.260 159.328 169.602  0.00  0.00    +0.000 A 
ATOM     21  C12 UNL     1     153.702 158.083 169.677  0.00  0.00    +0.000 A 
ATOM     22  N3  UNL     1     154.693 157.193 169.552  0.00  0.00    +0.000 N 
ATOM     23  C13 UNL     1     155.872 157.797 169.398  0.00  0.00    +0.000 A 
ATOM     24  C14 UNL     1     155.621 159.148 169.427  0.00  0.00    +0.000 A 
ATOM     25  C15 UNL     1     156.668 160.031 169.287  0.00  0.00    +0.000 A 
ATOM     26  C16 UNL     1     157.932 159.547 169.124  0.00  0.00    +0.000 A 
ATOM     27  C17 UNL     1     158.201 158.208 169.093  0.00  0.00    +0.000 A 
ATOM     28  C18 UNL     1     157.152 157.316 169.232  0.00  0.00    +0.000 A 
ATOM     29  C19 UNL     1     152.232 157.772 169.869  0.00  0.00    +0.000 C 
ATOM     30  H14 UNL     1     154.576 156.158 169.570  0.00  0.00    +0.000 HD
ENDBRANCH  19  20
ENDBRANCH  18  19
ENDBRANCH  16  18
ENDBRANCH   1  16
TORSDOF 8
ENDMDL
MODEL 7
REMARK VINA RESULT:      -5.2      2.968      4.254
REMARK  Name = ./3D_structures\o60_MMV010036_3D.pdb
REMARK  9 active torsions:
REMARK  status: ('A' for Active; 'I' for Inactive)
REMARK    1  A    between atoms: C1_2  and  C2_5
REMARK    2  A    between atoms: N1_3  and  O2_4
REMARK    3  A    between atoms: C3_6  and  C4_7
REMARK    4  A    between atoms: C7_10  and  C8_11
REMARK    5  A    between atoms: C8_11  and  N2_12
REMARK    6  A    between atoms: N2_12  and  C9_13
REMARK    7  A    between atoms: C9_13  and  C10_14
REMARK    8  A    between atoms: C10_14  and  C11_15
REMARK    9  A    between atoms: C12_16  and  C19_24
REMARK                            x       y       z     vdW  Elec       q    Type
REMARK                         _______ _______ _______ _____ _____    ______ ____
ROOT
ATOM      1  C8  UNL     1     155.655 159.827 170.813  0.00  0.00    +0.000 C 
ENDROOT
BRANCH   1   5
ATOM      2  C4  UNL     1     159.251 159.251 168.521  0.00  0.00    +0.000 A 
ATOM      3  C5  UNL     1     158.359 160.249 168.191  0.00  0.00    +0.000 A 
ATOM      4  C6  UNL     1     157.219 160.429 168.920  0.00  0.00    +0.000 A 
ATOM      5  C7  UNL     1     156.899 159.628 170.023  0.00  0.00    +0.000 A 
ATOM      6  C20 UNL     1     157.814 158.645 170.321  0.00  0.00    +0.000 A 
ATOM      7  C21 UNL     1     158.960 158.452 169.599  0.00  0.00    +0.000 A 
BRANCH   2   9
ATOM      8  C2  UNL     1     161.122 157.970 167.549  0.00  0.00    +0.000 C 
ATOM      9  C3  UNL     1     160.466 159.098 167.704  0.00  0.00    +0.000 C 
BRANCH   8  11
ATOM     10  O1  UNL     1     162.953 158.904 166.338  0.00  0.00    +0.000 OA
ATOM     11  C1  UNL     1     162.330 157.900 166.713  0.00  0.00    +0.000 C 
ATOM     12  N1  UNL     1     162.803 156.623 166.320  0.00  0.00    +0.000 N 
ATOM     13  H1  UNL     1     162.267 155.764 166.642  0.00  0.00    +0.000 HD
BRANCH  12  14
ATOM     14  O2  UNL     1     163.900 156.428 165.554  0.00  0.00    +0.000 OA
ATOM     15  H2  UNL     1     164.462 157.241 165.464  0.00  0.00    +0.000 HD
ENDBRANCH  12  14
ENDBRANCH   8  11
ENDBRANCH   2   9
ENDBRANCH   1   5
BRANCH   1  16
ATOM     16  N2  UNL     1     154.660 158.912 170.378  0.00  0.00    +0.000 NA
ATOM     17  H9  UNL     1     154.287 158.274 171.072  0.00  0.00    +0.000 HD
BRANCH  16  18
ATOM     18  C9  UNL     1     153.760 159.399 169.384  0.00  0.00    +0.000 C 
BRANCH  18  19
ATOM     19  C10 UNL     1     153.436 158.390 168.310  0.00  0.00    +0.000 C 
BRANCH  19  20
ATOM     20  C11 UNL     1     154.361 158.656 167.169  0.00  0.00    +0.000 A 
ATOM     21  C12 UNL     1     154.218 159.604 166.194  0.00  0.00    +0.000 A 
ATOM     22  N3  UNL     1     155.268 159.495 165.374  0.00  0.00    +0.000 N 
ATOM     23  C13 UNL     1     156.092 158.521 165.765  0.00  0.00    +0.000 A 
ATOM     24  C14 UNL     1     155.536 157.978 166.899  0.00  0.00    +0.000 A 
ATOM     25  C15 UNL     1     156.179 156.938 167.532  0.00  0.00    +0.000 A 
ATOM     26  C16 UNL     1     157.353 156.469 167.022  0.00  0.00    +0.000 A 
ATOM     27  C17 UNL     1     157.920 156.996 165.896  0.00  0.00    +0.000 A 
ATOM     28  C18 UNL     1     157.278 158.042 165.256  0.00  0.00    +0.000 A 
ATOM     29  C19 UNL     1     153.077 160.593 166.070  0.00  0.00    +0.000 C 
ATOM     30  H14 UNL     1     155.437 160.086 164.533  0.00  0.00    +0.000 HD
ENDBRANCH  19  20
ENDBRANCH  18  19
ENDBRANCH  16  18
ENDBRANCH   1  16
TORSDOF 8
ENDMDL
MODEL 8
REMARK VINA RESULT:      -5.1      3.927      6.813
REMARK  Name = ./3D_structures\o60_MMV010036_3D.pdb
REMARK  9 active torsions:
REMARK  status: ('A' for Active; 'I' for Inactive)
REMARK    1  A    between atoms: C1_2  and  C2_5
REMARK    2  A    between atoms: N1_3  and  O2_4
REMARK    3  A    between atoms: C3_6  and  C4_7
REMARK    4  A    between atoms: C7_10  and  C8_11
REMARK    5  A    between atoms: C8_11  and  N2_12
REMARK    6  A    between atoms: N2_12  and  C9_13
REMARK    7  A    between atoms: C9_13  and  C10_14
REMARK    8  A    between atoms: C10_14  and  C11_15
REMARK    9  A    between atoms: C12_16  and  C19_24
REMARK                            x       y       z     vdW  Elec       q    Type
REMARK                         _______ _______ _______ _____ _____    ______ ____
ROOT
ATOM      1  C8  UNL     1     156.638 159.008 165.445  0.00  0.00    +0.000 C 
ENDROOT
BRANCH   1   5
ATOM      2  C4  UNL     1     153.309 161.180 167.093  0.00  0.00    +0.000 A 
ATOM      3  C5  UNL     1     153.102 160.128 166.226  0.00  0.00    +0.000 A 
ATOM      4  C6  UNL     1     154.161 159.441 165.705  0.00  0.00    +0.000 A 
ATOM      5  C7  UNL     1     155.489 159.758 166.016  0.00  0.00    +0.000 A 
ATOM      6  C20 UNL     1     155.652 160.813 166.884  0.00  0.00    +0.000 A 
ATOM      7  C21 UNL     1     154.602 161.511 167.413  0.00  0.00    +0.000 A 
BRANCH   2   9
ATOM      8  C2  UNL     1     150.957 161.923 167.045  0.00  0.00    +0.000 C 
ATOM      9  C3  UNL     1     152.134 161.888 167.628  0.00  0.00    +0.000 C 
BRANCH   8  11
ATOM     10  O1  UNL     1     149.396 163.722 167.187  0.00  0.00    +0.000 OA
ATOM     11  C1  UNL     1     149.830 162.654 167.645  0.00  0.00    +0.000 C 
ATOM     12  N1  UNL     1     149.214 162.112 168.801  0.00  0.00    +0.000 N 
ATOM     13  H1  UNL     1     149.589 161.198 169.192  0.00  0.00    +0.000 HD
BRANCH  12  14
ATOM     14  O2  UNL     1     148.174 162.690 169.442  0.00  0.00    +0.000 OA
ATOM     15  H2  UNL     1     147.799 162.124 170.166  0.00  0.00    +0.000 HD
ENDBRANCH  12  14
ENDBRANCH   8  11
ENDBRANCH   2   9
ENDBRANCH   1   5
BRANCH   1  16
ATOM     16  N2  UNL     1     157.253 158.228 166.460  0.00  0.00    +0.000 NA
ATOM     17  H9  UNL     1     157.769 158.728 167.175  0.00  0.00    +0.000 HD
BRANCH  16  18
ATOM     18  C9  UNL     1     156.541 157.059 166.863  0.00  0.00    +0.000 C 
BRANCH  18  19
ATOM     19  C10 UNL     1     156.789 156.659 168.296  0.00  0.00    +0.000 C 
BRANCH  19  20
ATOM     20  C11 UNL     1     156.328 157.793 169.151  0.00  0.00    +0.000 A 
ATOM     21  C12 UNL     1     157.111 158.681 169.835  0.00  0.00    +0.000 A 
ATOM     22  N3  UNL     1     156.293 159.528 170.469  0.00  0.00    +0.000 N 
ATOM     23  C13 UNL     1     155.013 159.236 170.233  0.00  0.00    +0.000 A 
ATOM     24  C14 UNL     1     155.013 158.142 169.401  0.00  0.00    +0.000 A 
ATOM     25  C15 UNL     1     153.813 157.613 168.984  0.00  0.00    +0.000 A 
ATOM     26  C16 UNL     1     152.649 158.185 169.404  0.00  0.00    +0.000 A 
ATOM     27  C17 UNL     1     152.629 159.273 170.231  0.00  0.00    +0.000 A 
ATOM     28  C18 UNL     1     153.833 159.809 170.653  0.00  0.00    +0.000 A 
ATOM     29  C19 UNL     1     158.626 158.699 169.866  0.00  0.00    +0.000 C 
ATOM     30  H14 UNL     1     156.599 160.319 171.074  0.00  0.00    +0.000 HD
ENDBRANCH  19  20
ENDBRANCH  18  19
ENDBRANCH  16  18
ENDBRANCH   1  16
TORSDOF 8
ENDMDL
MODEL 9
REMARK VINA RESULT:      -5.1      3.457      6.009
REMARK  Name = ./3D_structures\o60_MMV010036_3D.pdb
REMARK  9 active torsions:
REMARK  status: ('A' for Active; 'I' for Inactive)
REMARK    1  A    between atoms: C1_2  and  C2_5
REMARK    2  A    between atoms: N1_3  and  O2_4
REMARK    3  A    between atoms: C3_6  and  C4_7
REMARK    4  A    between atoms: C7_10  and  C8_11
REMARK    5  A    between atoms: C8_11  and  N2_12
REMARK    6  A    between atoms: N2_12  and  C9_13
REMARK    7  A    between atoms: C9_13  and  C10_14
REMARK    8  A    between atoms: C10_14  and  C11_15
REMARK    9  A    between atoms: C12_16  and  C19_24
REMARK                            x       y       z     vdW  Elec       q    Type
REMARK                         _______ _______ _______ _____ _____    ______ ____
ROOT
ATOM      1  C8  UNL     1     159.300 159.712 168.439  0.00  0.00    +0.000 C 
ENDROOT
BRANCH   1   5
ATOM      2  C4  UNL     1     155.203 159.000 169.545  0.00  0.00    +0.000 A 
ATOM      3  C5  UNL     1     155.643 160.275 169.262  0.00  0.00    +0.000 A 
ATOM      4  C6  UNL     1     156.944 160.498 168.910  0.00  0.00    +0.000 A 
ATOM      5  C7  UNL     1     157.884 159.465 168.820  0.00  0.00    +0.000 A 
ATOM      6  C20 UNL     1     157.406 158.207 169.110  0.00  0.00    +0.000 A 
ATOM      7  C21 UNL     1     156.106 157.970 169.464  0.00  0.00    +0.000 A 
BRANCH   2   9
ATOM      8  C2  UNL     1     153.062 157.774 169.576  0.00  0.00    +0.000 C 
ATOM      9  C3  UNL     1     153.791 158.813 169.918  0.00  0.00    +0.000 C 
BRANCH   8  11
ATOM     10  O1  UNL     1     151.178 156.631 170.489  0.00  0.00    +0.000 OA
ATOM     11  C1  UNL     1     151.655 157.661 169.990  0.00  0.00    +0.000 C 
ATOM     12  N1  UNL     1     150.808 158.783 169.809  0.00  0.00    +0.000 N 
ATOM     13  H1  UNL     1     151.219 159.664 169.381  0.00  0.00    +0.000 HD
BRANCH  12  14
ATOM     14  O2  UNL     1     149.499 158.802 170.149  0.00  0.00    +0.000 OA
ATOM     15  H2  UNL     1     149.331 159.233 171.027  0.00  0.00    +0.000 HD
ENDBRANCH  12  14
ENDBRANCH   8  11
ENDBRANCH   2   9
ENDBRANCH   1   5
BRANCH   1  16
ATOM     16  N2  UNL     1     159.379 159.998 167.049  0.00  0.00    +0.000 NA
ATOM     17  H9  UNL     1     159.723 160.914 166.787  0.00  0.00    +0.000 HD
BRANCH  16  18
ATOM     18  C9  UNL     1     159.732 158.900 166.208  0.00  0.00    +0.000 C 
BRANCH  18  19
ATOM     19  C10 UNL     1     158.903 158.805 164.953  0.00  0.00    +0.000 C 
BRANCH  19  20
ATOM     20  C11 UNL     1     157.563 158.280 165.353  0.00  0.00    +0.000 A 
ATOM     21  C12 UNL     1     157.238 156.984 165.644  0.00  0.00    +0.000 A 
ATOM     22  N3  UNL     1     155.937 156.959 165.951  0.00  0.00    +0.000 N 
ATOM     23  C13 UNL     1     155.395 158.175 165.875  0.00  0.00    +0.000 A 
ATOM     24  C14 UNL     1     156.407 159.025 165.498  0.00  0.00    +0.000 A 
ATOM     25  C15 UNL     1     156.136 160.366 165.339  0.00  0.00    +0.000 A 
ATOM     26  C16 UNL     1     154.870 160.822 165.559  0.00  0.00    +0.000 A 
ATOM     27  C17 UNL     1     153.852 159.992 165.934  0.00  0.00    +0.000 A 
ATOM     28  C18 UNL     1     154.119 158.643 166.096  0.00  0.00    +0.000 A 
ATOM     29  C19 UNL     1     158.182 155.799 165.621  0.00  0.00    +0.000 C 
ATOM     30  H14 UNL     1     155.400 156.106 166.218  0.00  0.00    +0.000 HD
ENDBRANCH  19  20
ENDBRANCH  18  19
ENDBRANCH  16  18
ENDBRANCH   1  16
TORSDOF 8
ENDMDL
