MODEL 1
REMARK VINA RESULT:      -7.0      0.000      0.000
REMARK  Name = ./3D_structures\o61_MMV637879_3D.pdb
REMARK  17 active torsions:
REMARK  status: ('A' for Active; 'I' for Inactive)
REMARK    1  A    between atoms: C1_2  and  C30_40
REMARK    2  A    between atoms: N1_3  and  C2_4
REMARK    3  A    between atoms: C2_4  and  C3_5
REMARK    4  A    between atoms: C2_4  and  C28_36
REMARK    5  A    between atoms: N2_7  and  C4_8
REMARK    6  A    between atoms: C4_8  and  C5_9
REMARK    7  A    between atoms: C4_8  and  C21_29
REMARK    8  A    between atoms: C5_9  and  O3_10
REMARK    9  A    between atoms: C5_9  and  C6_11
REMARK   10  A    between atoms: C6_11  and  N3_12
REMARK   11  A    between atoms: C7_13  and  C8_14
REMARK   12  A    between atoms: N4_16  and  C9_17
REMARK   13  A    between atoms: C9_17  and  C10_18
REMARK   14  A    between atoms: C9_17  and  C11_19
REMARK   15  A    between atoms: C9_17  and  C12_20
REMARK   16  A    between atoms: C21_29  and  C22_30
REMARK   17  A    between atoms: C28_36  and  C29_37
REMARK                            x       y       z     vdW  Elec       q    Type
REMARK                         _______ _______ _______ _____ _____    ______ ____
ROOT
ATOM      1  C4  UNL     1     148.052 164.287 167.955  0.00  0.00    +0.000 C 
ENDROOT
BRANCH   1   4
ATOM      2  C3  UNL     1     148.863 165.359 170.111  0.00  0.00    +0.000 C 
ATOM      3  O2  UNL     1     147.664 165.196 170.535  0.00  0.00    +0.000 OA
ATOM      4  N2  UNL     1     149.074 164.894 168.779  0.00  0.00    +0.000 N 
ATOM      5  H3  UNL     1     150.027 165.000 168.375  0.00  0.00    +0.000 HD
BRANCH   2   6
ATOM      6  C2  UNL     1     149.886 165.966 170.939  0.00  0.00    +0.000 C 
BRANCH   6   9
ATOM      7  O1  UNL     1     150.825 164.462 173.349  0.00  0.00    +0.000 OA
ATOM      8  C1  UNL     1     151.443 164.441 172.266  0.00  0.00    +0.000 C 
ATOM      9  N1  UNL     1     151.030 165.144 171.129  0.00  0.00    +0.000 N 
ATOM     10  H1  UNL     1     151.691 165.039 170.274  0.00  0.00    +0.000 HD
BRANCH   8  11
ATOM     11  C30 UNL     1     152.668 163.608 172.249  0.00  0.00    +0.000 A 
ATOM     12  N6  UNL     1     152.820 162.575 173.099  0.00  0.00    +0.000 NA
ATOM     13  C31 UNL     1     153.958 161.835 173.059  0.00  0.00    +0.000 A 
ATOM     14  C32 UNL     1     154.150 160.762 173.924  0.00  0.00    +0.000 A 
ATOM     15  C33 UNL     1     155.310 160.002 173.891  0.00  0.00    +0.000 A 
ATOM     16  C34 UNL     1     156.309 160.319 172.971  0.00  0.00    +0.000 A 
ATOM     17  C35 UNL     1     156.148 161.362 172.116  0.00  0.00    +0.000 A 
ATOM     18  C36 UNL     1     154.982 162.111 172.162  0.00  0.00    +0.000 A 
ATOM     19  C37 UNL     1     154.839 163.162 171.289  0.00  0.00    +0.000 A 
ATOM     20  C38 UNL     1     153.669 163.891 171.360  0.00  0.00    +0.000 A 
ENDBRANCH   8  11
ENDBRANCH   6   9
BRANCH   6  21
ATOM     21  C28 UNL     1     150.281 167.379 170.541  0.00  0.00    +0.000 C 
BRANCH  21  22
ATOM     22  C29 UNL     1     150.309 168.328 171.651  0.00  0.00    +0.000 C 
ATOM     23  O5  UNL     1     151.052 168.124 172.640  0.00  0.00    +0.000 OA
ATOM     24  N5  UNL     1     149.506 169.494 171.643  0.00  0.00    +0.000 N 
ATOM     25  H43 UNL     1     148.463 169.493 171.656  0.00  0.00    +0.000 HD
ATOM     26  H44 UNL     1     149.974 170.428 171.624  0.00  0.00    +0.000 HD
ENDBRANCH  21  22
ENDBRANCH   6  21
ENDBRANCH   2   6
ENDBRANCH   1   4
BRANCH   1  27
ATOM     27  C5  UNL     1     148.117 162.786 168.110  0.00  0.00    +0.000 C 
BRANCH  27  28
ATOM     28  O3  UNL     1     147.004 162.476 168.930  0.00  0.00    +0.000 OA
ATOM     29  H6  UNL     1     146.465 161.760 168.539  0.00  0.00    +0.000 HD
ENDBRANCH  27  28
BRANCH  27  30
ATOM     30  C6  UNL     1     149.317 162.298 168.819  0.00  0.00    +0.000 C 
BRANCH  30  31
ATOM     31  N3  UNL     1     150.366 161.754 167.980  0.00  0.00    +0.000 NA
ATOM     32  C7  UNL     1     151.530 162.567 167.919  0.00  0.00    +0.000 C 
ATOM     33  C13 UNL     1     152.751 161.646 167.836  0.00  0.00    +0.000 C 
ATOM     34  C14 UNL     1     153.017 160.879 169.087  0.00  0.00    +0.000 C 
ATOM     35  C15 UNL     1     153.815 159.636 168.734  0.00  0.00    +0.000 C 
ATOM     36  C16 UNL     1     154.287 158.995 170.020  0.00  0.00    +0.000 C 
ATOM     37  C17 UNL     1     153.113 158.961 170.959  0.00  0.00    +0.000 C 
ATOM     38  C18 UNL     1     151.792 159.080 170.187  0.00  0.00    +0.000 C 
ATOM     39  C19 UNL     1     151.645 160.464 169.620  0.00  0.00    +0.000 C 
ATOM     40  C20 UNL     1     150.706 160.413 168.433  0.00  0.00    +0.000 C 
BRANCH  32  41
ATOM     41  C8  UNL     1     151.639 163.439 166.725  0.00  0.00    +0.000 C 
ATOM     42  O4  UNL     1     151.262 163.020 165.613  0.00  0.00    +0.000 OA
ATOM     43  N4  UNL     1     152.162 164.753 166.809  0.00  0.00    +0.000 N 
ATOM     44  H10 UNL     1     152.461 165.048 167.767  0.00  0.00    +0.000 HD
BRANCH  43  45
ATOM     45  C9  UNL     1     152.304 165.661 165.728  0.00  0.00    +0.000 C 
ATOM     46  C10 UNL     1     152.765 167.045 166.194  0.00  0.00    +0.000 C 
ATOM     47  C11 UNL     1     153.362 165.148 164.774  0.00  0.00    +0.000 C 
ATOM     48  C12 UNL     1     151.043 165.868 164.927  0.00  0.00    +0.000 C 
ENDBRANCH  43  45
ENDBRANCH  32  41
ENDBRANCH  30  31
ENDBRANCH  27  30
ENDBRANCH   1  27
BRANCH   1  49
ATOM     49  C21 UNL     1     148.018 164.750 166.548  0.00  0.00    +0.000 C 
BRANCH  49  50
ATOM     50  C22 UNL     1     146.632 165.241 166.240  0.00  0.00    +0.000 A 
ATOM     51  C23 UNL     1     146.383 166.560 165.940  0.00  0.00    +0.000 A 
ATOM     52  C24 UNL     1     145.130 167.044 165.647  0.00  0.00    +0.000 A 
ATOM     53  C25 UNL     1     144.073 166.161 165.655  0.00  0.00    +0.000 A 
ATOM     54  C26 UNL     1     144.282 164.834 165.950  0.00  0.00    +0.000 A 
ATOM     55  C27 UNL     1     145.551 164.385 166.239  0.00  0.00    +0.000 A 
ENDBRANCH  49  50
ENDBRANCH   1  49
TORSDOF 14
ENDMDL
MODEL 2
REMARK VINA RESULT:      -6.9      2.460      5.881
REMARK  Name = ./3D_structures\o61_MMV637879_3D.pdb
REMARK  17 active torsions:
REMARK  status: ('A' for Active; 'I' for Inactive)
REMARK    1  A    between atoms: C1_2  and  C30_40
REMARK    2  A    between atoms: N1_3  and  C2_4
REMARK    3  A    between atoms: C2_4  and  C3_5
REMARK    4  A    between atoms: C2_4  and  C28_36
REMARK    5  A    between atoms: N2_7  and  C4_8
REMARK    6  A    between atoms: C4_8  and  C5_9
REMARK    7  A    between atoms: C4_8  and  C21_29
REMARK    8  A    between atoms: C5_9  and  O3_10
REMARK    9  A    between atoms: C5_9  and  C6_11
REMARK   10  A    between atoms: C6_11  and  N3_12
REMARK   11  A    between atoms: C7_13  and  C8_14
REMARK   12  A    between atoms: N4_16  and  C9_17
REMARK   13  A    between atoms: C9_17  and  C10_18
REMARK   14  A    between atoms: C9_17  and  C11_19
REMARK   15  A    between atoms: C9_17  and  C12_20
REMARK   16  A    between atoms: C21_29  and  C22_30
REMARK   17  A    between atoms: C28_36  and  C29_37
REMARK                            x       y       z     vdW  Elec       q    Type
REMARK                         _______ _______ _______ _____ _____    ______ ____
ROOT
ATOM      1  C4  UNL     1     151.696 166.286 169.769  0.00  0.00    +0.000 C 
ENDROOT
BRANCH   1   4
ATOM      2  C3  UNL     1     153.023 166.431 167.607  0.00  0.00    +0.000 C 
ATOM      3  O2  UNL     1     153.565 167.474 168.118  0.00  0.00    +0.000 OA
ATOM      4  N2  UNL     1     152.054 165.810 168.451  0.00  0.00    +0.000 N 
ATOM      5  H3  UNL     1     151.576 164.958 168.093  0.00  0.00    +0.000 HD
BRANCH   2   6
ATOM      6  C2  UNL     1     153.385 165.954 166.287  0.00  0.00    +0.000 C 
BRANCH   6   9
ATOM      7  O1  UNL     1     155.641 164.277 167.310  0.00  0.00    +0.000 OA
ATOM      8  C1  UNL     1     154.657 163.785 166.721  0.00  0.00    +0.000 C 
ATOM      9  N1  UNL     1     153.597 164.550 166.224  0.00  0.00    +0.000 N 
ATOM     10  H1  UNL     1     152.829 163.973 165.717  0.00  0.00    +0.000 HD
BRANCH   8  11
ATOM     11  C30 UNL     1     154.676 162.312 166.573  0.00  0.00    +0.000 A 
ATOM     12  N6  UNL     1     155.691 161.575 167.064  0.00  0.00    +0.000 NA
ATOM     13  C31 UNL     1     155.677 160.225 166.907  0.00  0.00    +0.000 A 
ATOM     14  C32 UNL     1     156.710 159.433 167.398  0.00  0.00    +0.000 A 
ATOM     15  C33 UNL     1     156.704 158.055 167.241  0.00  0.00    +0.000 A 
ATOM     16  C34 UNL     1     155.641 157.447 166.576  0.00  0.00    +0.000 A 
ATOM     17  C35 UNL     1     154.620 158.197 166.085  0.00  0.00    +0.000 A 
ATOM     18  C36 UNL     1     154.640 159.573 166.251  0.00  0.00    +0.000 A 
ATOM     19  C37 UNL     1     153.599 160.313 165.747  0.00  0.00    +0.000 A 
ATOM     20  C38 UNL     1     153.648 161.682 165.925  0.00  0.00    +0.000 A 
ENDBRANCH   8  11
ENDBRANCH   6   9
BRANCH   6  21
ATOM     21  C28 UNL     1     152.479 166.427 165.162  0.00  0.00    +0.000 C 
BRANCH  21  22
ATOM     22  C29 UNL     1     151.333 165.557 164.909  0.00  0.00    +0.000 C 
ATOM     23  O5  UNL     1     151.477 164.493 164.261  0.00  0.00    +0.000 OA
ATOM     24  N5  UNL     1     150.041 165.886 165.383  0.00  0.00    +0.000 N 
ATOM     25  H43 UNL     1     149.491 166.716 165.073  0.00  0.00    +0.000 HD
ATOM     26  H44 UNL     1     149.590 165.263 166.091  0.00  0.00    +0.000 HD
ENDBRANCH  21  22
ENDBRANCH   6  21
ENDBRANCH   2   6
ENDBRANCH   1   4
BRANCH   1  27
ATOM     27  C5  UNL     1     152.107 165.258 170.796  0.00  0.00    +0.000 C 
BRANCH  27  28
ATOM     28  O3  UNL     1     153.218 165.848 171.448  0.00  0.00    +0.000 OA
ATOM     29  H6  UNL     1     153.336 166.779 171.173  0.00  0.00    +0.000 HD
ENDBRANCH  27  28
BRANCH  27  30
ATOM     30  C6  UNL     1     152.578 163.980 170.225  0.00  0.00    +0.000 C 
BRANCH  30  31
ATOM     31  N3  UNL     1     151.609 162.903 170.210  0.00  0.00    +0.000 NA
ATOM     32  C7  UNL     1     151.197 162.522 168.904  0.00  0.00    +0.000 C 
ATOM     33  C13 UNL     1     150.971 161.007 168.899  0.00  0.00    +0.000 C 
ATOM     34  C14 UNL     1     152.222 160.208 169.035  0.00  0.00    +0.000 C 
ATOM     35  C15 UNL     1     151.867 158.840 169.592  0.00  0.00    +0.000 C 
ATOM     36  C16 UNL     1     153.092 157.958 169.501  0.00  0.00    +0.000 C 
ATOM     37  C17 UNL     1     154.258 158.760 170.011  0.00  0.00    +0.000 C 
ATOM     38  C18 UNL     1     153.780 159.922 170.891  0.00  0.00    +0.000 C 
ATOM     39  C19 UNL     1     153.086 160.958 170.050  0.00  0.00    +0.000 C 
ATOM     40  C20 UNL     1     152.145 161.756 170.928  0.00  0.00    +0.000 C 
BRANCH  32  41
ATOM     41  C8  UNL     1     149.907 163.093 168.450  0.00  0.00    +0.000 C 
ATOM     42  O4  UNL     1     149.715 163.309 167.236  0.00  0.00    +0.000 OA
ATOM     43  N4  UNL     1     148.869 163.404 169.362  0.00  0.00    +0.000 N 
ATOM     44  H10 UNL     1     149.086 163.201 170.364  0.00  0.00    +0.000 HD
BRANCH  43  45
ATOM     45  C9  UNL     1     147.602 163.949 169.025  0.00  0.00    +0.000 C 
ATOM     46  C10 UNL     1     147.713 165.065 167.982  0.00  0.00    +0.000 C 
ATOM     47  C11 UNL     1     146.734 162.869 168.415  0.00  0.00    +0.000 C 
ATOM     48  C12 UNL     1     146.846 164.521 170.198  0.00  0.00    +0.000 C 
ENDBRANCH  43  45
ENDBRANCH  32  41
ENDBRANCH  30  31
ENDBRANCH  27  30
ENDBRANCH   1  27
BRANCH   1  49
ATOM     49  C21 UNL     1     150.299 166.759 169.911  0.00  0.00    +0.000 C 
BRANCH  49  50
ATOM     50  C22 UNL     1     150.323 168.209 170.303  0.00  0.00    +0.000 A 
ATOM     51  C23 UNL     1     150.722 169.188 169.424  0.00  0.00    +0.000 A 
ATOM     52  C24 UNL     1     150.751 170.524 169.746  0.00  0.00    +0.000 A 
ATOM     53  C25 UNL     1     150.362 170.898 171.013  0.00  0.00    +0.000 A 
ATOM     54  C26 UNL     1     149.956 169.947 171.920  0.00  0.00    +0.000 A 
ATOM     55  C27 UNL     1     149.940 168.618 171.563  0.00  0.00    +0.000 A 
ENDBRANCH  49  50
ENDBRANCH   1  49
TORSDOF 14
ENDMDL
MODEL 3
REMARK VINA RESULT:      -6.8      2.870      7.968
REMARK  Name = ./3D_structures\o61_MMV637879_3D.pdb
REMARK  17 active torsions:
REMARK  status: ('A' for Active; 'I' for Inactive)
REMARK    1  A    between atoms: C1_2  and  C30_40
REMARK    2  A    between atoms: N1_3  and  C2_4
REMARK    3  A    between atoms: C2_4  and  C3_5
REMARK    4  A    between atoms: C2_4  and  C28_36
REMARK    5  A    between atoms: N2_7  and  C4_8
REMARK    6  A    between atoms: C4_8  and  C5_9
REMARK    7  A    between atoms: C4_8  and  C21_29
REMARK    8  A    between atoms: C5_9  and  O3_10
REMARK    9  A    between atoms: C5_9  and  C6_11
REMARK   10  A    between atoms: C6_11  and  N3_12
REMARK   11  A    between atoms: C7_13  and  C8_14
REMARK   12  A    between atoms: N4_16  and  C9_17
REMARK   13  A    between atoms: C9_17  and  C10_18
REMARK   14  A    between atoms: C9_17  and  C11_19
REMARK   15  A    between atoms: C9_17  and  C12_20
REMARK   16  A    between atoms: C21_29  and  C22_30
REMARK   17  A    between atoms: C28_36  and  C29_37
REMARK                            x       y       z     vdW  Elec       q    Type
REMARK                         _______ _______ _______ _____ _____    ______ ____
ROOT
ATOM      1  C4  UNL     1     153.701 160.577 169.699  0.00  0.00    +0.000 C 
ENDROOT
BRANCH   1   4
ATOM      2  C3  UNL     1     152.844 162.963 169.862  0.00  0.00    +0.000 C 
ATOM      3  O2  UNL     1     153.601 163.206 168.856  0.00  0.00    +0.000 OA
ATOM      4  N2  UNL     1     152.889 161.608 170.306  0.00  0.00    +0.000 N 
ATOM      5  H3  UNL     1     152.297 161.347 171.122  0.00  0.00    +0.000 HD
BRANCH   2   6
ATOM      6  C2  UNL     1     152.029 163.998 170.467  0.00  0.00    +0.000 C 
BRANCH   6   9
ATOM      7  O1  UNL     1     149.840 162.098 169.727  0.00  0.00    +0.000 OA
ATOM      8  C1  UNL     1     149.781 163.317 169.469  0.00  0.00    +0.000 C 
ATOM      9  N1  UNL     1     150.796 164.222 169.795  0.00  0.00    +0.000 N 
ATOM     10  H1  UNL     1     150.601 165.244 169.482  0.00  0.00    +0.000 HD
BRANCH   8  11
ATOM     11  C30 UNL     1     148.547 163.763 168.783  0.00  0.00    +0.000 A 
ATOM     12  N6  UNL     1     148.579 164.736 167.853  0.00  0.00    +0.000 NA
ATOM     13  C31 UNL     1     147.427 165.124 167.246  0.00  0.00    +0.000 A 
ATOM     14  C32 UNL     1     147.423 166.127 166.283  0.00  0.00    +0.000 A 
ATOM     15  C33 UNL     1     146.251 166.530 165.660  0.00  0.00    +0.000 A 
ATOM     16  C34 UNL     1     145.047 165.916 166.005  0.00  0.00    +0.000 A 
ATOM     17  C35 UNL     1     145.023 164.934 166.944  0.00  0.00    +0.000 A 
ATOM     18  C36 UNL     1     146.204 164.543 167.556  0.00  0.00    +0.000 A 
ATOM     19  C37 UNL     1     146.157 163.550 168.503  0.00  0.00    +0.000 A 
ATOM     20  C38 UNL     1     147.348 163.183 169.098  0.00  0.00    +0.000 A 
ENDBRANCH   8  11
ENDBRANCH   6   9
BRANCH   6  21
ATOM     21  C28 UNL     1     151.823 163.859 171.967  0.00  0.00    +0.000 C 
BRANCH  21  22
ATOM     22  C29 UNL     1     151.250 165.041 172.605  0.00  0.00    +0.000 C 
ATOM     23  O5  UNL     1     150.131 165.477 172.241  0.00  0.00    +0.000 OA
ATOM     24  N5  UNL     1     151.933 165.723 173.640  0.00  0.00    +0.000 N 
ATOM     25  H43 UNL     1     152.845 166.215 173.522  0.00  0.00    +0.000 HD
ATOM     26  H44 UNL     1     151.508 165.745 174.595  0.00  0.00    +0.000 HD
ENDBRANCH  21  22
ENDBRANCH   6  21
ENDBRANCH   2   6
ENDBRANCH   1   4
BRANCH   1  27
ATOM     27  C5  UNL     1     152.892 159.870 168.638  0.00  0.00    +0.000 C 
BRANCH  27  28
ATOM     28  O3  UNL     1     151.764 159.376 169.337  0.00  0.00    +0.000 OA
ATOM     29  H6  UNL     1     151.729 158.399 169.308  0.00  0.00    +0.000 HD
ENDBRANCH  27  28
BRANCH  27  30
ATOM     30  C6  UNL     1     153.565 158.702 168.035  0.00  0.00    +0.000 C 
BRANCH  30  31
ATOM     31  N3  UNL     1     153.979 158.857 166.655  0.00  0.00    +0.000 NA
ATOM     32  C7  UNL     1     154.508 160.143 166.358  0.00  0.00    +0.000 C 
ATOM     33  C13 UNL     1     155.635 159.969 165.334  0.00  0.00    +0.000 C 
ATOM     34  C14 UNL     1     156.847 159.292 165.878  0.00  0.00    +0.000 C 
ATOM     35  C15 UNL     1     157.610 158.663 164.725  0.00  0.00    +0.000 C 
ATOM     36  C16 UNL     1     158.950 158.193 165.244  0.00  0.00    +0.000 C 
ATOM     37  C17 UNL     1     158.698 157.466 166.536  0.00  0.00    +0.000 C 
ATOM     38  C18 UNL     1     157.238 157.004 166.628  0.00  0.00    +0.000 C 
ATOM     39  C19 UNL     1     156.329 158.189 166.801  0.00  0.00    +0.000 C 
ATOM     40  C20 UNL     1     154.942 157.820 166.315  0.00  0.00    +0.000 C 
BRANCH  32  41
ATOM     41  C8  UNL     1     153.565 161.090 165.717  0.00  0.00    +0.000 C 
ATOM     42  O4  UNL     1     152.615 160.656 165.034  0.00  0.00    +0.000 OA
ATOM     43  N4  UNL     1     153.708 162.491 165.859  0.00  0.00    +0.000 N 
ATOM     44  H10 UNL     1     154.521 162.796 166.442  0.00  0.00    +0.000 HD
BRANCH  43  45
ATOM     45  C9  UNL     1     152.859 163.476 165.288  0.00  0.00    +0.000 C 
ATOM     46  C10 UNL     1     151.489 163.523 165.971  0.00  0.00    +0.000 C 
ATOM     47  C11 UNL     1     153.482 164.843 165.467  0.00  0.00    +0.000 C 
ATOM     48  C12 UNL     1     152.605 163.289 163.813  0.00  0.00    +0.000 C 
ENDBRANCH  43  45
ENDBRANCH  32  41
ENDBRANCH  30  31
ENDBRANCH  27  30
ENDBRANCH   1  27
BRANCH   1  49
ATOM     49  C21 UNL     1     154.380 159.666 170.651  0.00  0.00    +0.000 C 
BRANCH  49  50
ATOM     50  C22 UNL     1     155.837 159.599 170.292  0.00  0.00    +0.000 A 
ATOM     51  C23 UNL     1     156.605 158.499 170.592  0.00  0.00    +0.000 A 
ATOM     52  C24 UNL     1     157.938 158.400 170.274  0.00  0.00    +0.000 A 
ATOM     53  C25 UNL     1     158.533 159.456 169.621  0.00  0.00    +0.000 A 
ATOM     54  C26 UNL     1     157.797 160.575 169.303  0.00  0.00    +0.000 A 
ATOM     55  C27 UNL     1     156.463 160.639 169.638  0.00  0.00    +0.000 A 
ENDBRANCH  49  50
ENDBRANCH   1  49
TORSDOF 14
ENDMDL
MODEL 4
REMARK VINA RESULT:      -6.8      2.799      4.209
REMARK  Name = ./3D_structures\o61_MMV637879_3D.pdb
REMARK  17 active torsions:
REMARK  status: ('A' for Active; 'I' for Inactive)
REMARK    1  A    between atoms: C1_2  and  C30_40
REMARK    2  A    between atoms: N1_3  and  C2_4
REMARK    3  A    between atoms: C2_4  and  C3_5
REMARK    4  A    between atoms: C2_4  and  C28_36
REMARK    5  A    between atoms: N2_7  and  C4_8
REMARK    6  A    between atoms: C4_8  and  C5_9
REMARK    7  A    between atoms: C4_8  and  C21_29
REMARK    8  A    between atoms: C5_9  and  O3_10
REMARK    9  A    between atoms: C5_9  and  C6_11
REMARK   10  A    between atoms: C6_11  and  N3_12
REMARK   11  A    between atoms: C7_13  and  C8_14
REMARK   12  A    between atoms: N4_16  and  C9_17
REMARK   13  A    between atoms: C9_17  and  C10_18
REMARK   14  A    between atoms: C9_17  and  C11_19
REMARK   15  A    between atoms: C9_17  and  C12_20
REMARK   16  A    between atoms: C21_29  and  C22_30
REMARK   17  A    between atoms: C28_36  and  C29_37
REMARK                            x       y       z     vdW  Elec       q    Type
REMARK                         _______ _______ _______ _____ _____    ______ ____
ROOT
ATOM      1  C4  UNL     1     150.225 163.062 167.611  0.00  0.00    +0.000 C 
ENDROOT
BRANCH   1   4
ATOM      2  C3  UNL     1     150.833 162.135 169.898  0.00  0.00    +0.000 C 
ATOM      3  O2  UNL     1     149.718 161.506 169.837  0.00  0.00    +0.000 OA
ATOM      4  N2  UNL     1     151.104 162.943 168.753  0.00  0.00    +0.000 N 
ATOM      5  H3  UNL     1     151.995 163.482 168.742  0.00  0.00    +0.000 HD
BRANCH   2   6
ATOM      6  C2  UNL     1     151.714 162.013 171.042  0.00  0.00    +0.000 C 
BRANCH   6   9
ATOM      7  O1  UNL     1     152.473 159.126 170.842  0.00  0.00    +0.000 OA
ATOM      8  C1  UNL     1     153.290 160.046 170.642  0.00  0.00    +0.000 C 
ATOM      9  N1  UNL     1     152.962 161.402 170.741  0.00  0.00    +0.000 N 
ATOM     10  H1  UNL     1     153.793 162.078 170.559  0.00  0.00    +0.000 HD
BRANCH   8  11
ATOM     11  C30 UNL     1     154.661 159.613 170.285  0.00  0.00    +0.000 A 
ATOM     12  N6  UNL     1     155.541 160.470 169.734  0.00  0.00    +0.000 NA
ATOM     13  C31 UNL     1     156.789 160.037 169.415  0.00  0.00    +0.000 A 
ATOM     14  C32 UNL     1     157.723 160.894 168.841  0.00  0.00    +0.000 A 
ATOM     15  C33 UNL     1     158.999 160.460 168.512  0.00  0.00    +0.000 A 
ATOM     16  C34 UNL     1     159.356 159.135 168.759  0.00  0.00    +0.000 A 
ATOM     17  C35 UNL     1     158.463 158.277 169.318  0.00  0.00    +0.000 A 
ATOM     18  C36 UNL     1     157.192 158.727 169.641  0.00  0.00    +0.000 A 
ATOM     19  C37 UNL     1     156.304 157.844 170.204  0.00  0.00    +0.000 A 
ATOM     20  C38 UNL     1     155.045 158.319 170.514  0.00  0.00    +0.000 A 
ENDBRANCH   8  11
ENDBRANCH   6   9
BRANCH   6  21
ATOM     21  C28 UNL     1     151.903 163.288 171.847  0.00  0.00    +0.000 C 
BRANCH  21  22
ATOM     22  C29 UNL     1     153.156 163.987 171.577  0.00  0.00    +0.000 C 
ATOM     23  O5  UNL     1     153.427 164.375 170.414  0.00  0.00    +0.000 OA
ATOM     24  N5  UNL     1     154.093 164.244 172.606  0.00  0.00    +0.000 N 
ATOM     25  H43 UNL     1     154.607 163.506 173.135  0.00  0.00    +0.000 HD
ATOM     26  H44 UNL     1     154.298 165.236 172.865  0.00  0.00    +0.000 HD
ENDBRANCH  21  22
ENDBRANCH   6  21
ENDBRANCH   2   6
ENDBRANCH   1   4
BRANCH   1  27
ATOM     27  C5  UNL     1     150.558 161.978 166.615  0.00  0.00    +0.000 C 
BRANCH  27  28
ATOM     28  O3  UNL     1     149.581 160.980 166.853  0.00  0.00    +0.000 OA
ATOM     29  H6  UNL     1     149.027 160.831 166.061  0.00  0.00    +0.000 HD
ENDBRANCH  27  28
BRANCH  27  30
ATOM     30  C6  UNL     1     151.875 161.343 166.821  0.00  0.00    +0.000 C 
BRANCH  30  31
ATOM     31  N3  UNL     1     152.780 161.389 165.690  0.00  0.00    +0.000 NA
ATOM     32  C7  UNL     1     153.887 162.259 165.879  0.00  0.00    +0.000 C 
ATOM     33  C13 UNL     1     155.106 161.635 165.192  0.00  0.00    +0.000 C 
ATOM     34  C14 UNL     1     155.611 160.400 165.858  0.00  0.00    +0.000 C 
ATOM     35  C15 UNL     1     156.376 159.576 164.838  0.00  0.00    +0.000 C 
ATOM     36  C16 UNL     1     157.086 158.457 165.568  0.00  0.00    +0.000 C 
ATOM     37  C17 UNL     1     156.094 157.846 166.518  0.00  0.00    +0.000 C 
ATOM     38  C18 UNL     1     154.656 158.167 166.090  0.00  0.00    +0.000 C 
ATOM     39  C19 UNL     1     154.367 159.628 166.299  0.00  0.00    +0.000 C 
ATOM     40  C20 UNL     1     153.238 160.043 165.378  0.00  0.00    +0.000 C 
BRANCH  32  41
ATOM     41  C8  UNL     1     153.758 163.601 165.263  0.00  0.00    +0.000 C 
ATOM     42  O4  UNL     1     153.895 163.735 164.031  0.00  0.00    +0.000 OA
ATOM     43  N4  UNL     1     153.478 164.751 166.040  0.00  0.00    +0.000 N 
ATOM     44  H10 UNL     1     153.374 164.577 167.066  0.00  0.00    +0.000 HD
BRANCH  43  45
ATOM     45  C9  UNL     1     153.335 166.074 165.544  0.00  0.00    +0.000 C 
ATOM     46  C10 UNL     1     152.134 166.211 164.605  0.00  0.00    +0.000 C 
ATOM     47  C11 UNL     1     153.094 167.021 166.700  0.00  0.00    +0.000 C 
ATOM     48  C12 UNL     1     154.538 166.584 164.793  0.00  0.00    +0.000 C 
ENDBRANCH  43  45
ENDBRANCH  32  41
ENDBRANCH  30  31
ENDBRANCH  27  30
ENDBRANCH   1  27
BRANCH   1  49
ATOM     49  C21 UNL     1     150.135 164.420 167.023  0.00  0.00    +0.000 C 
BRANCH  49  50
ATOM     50  C22 UNL     1     148.692 164.835 167.001  0.00  0.00    +0.000 A 
ATOM     51  C23 UNL     1     148.254 165.882 166.224  0.00  0.00    +0.000 A 
ATOM     52  C24 UNL     1     146.941 166.287 166.173  0.00  0.00    +0.000 A 
ATOM     53  C25 UNL     1     146.020 165.608 166.939  0.00  0.00    +0.000 A 
ATOM     54  C26 UNL     1     146.420 164.555 167.729  0.00  0.00    +0.000 A 
ATOM     55  C27 UNL     1     147.743 164.178 167.755  0.00  0.00    +0.000 A 
ENDBRANCH  49  50
ENDBRANCH   1  49
TORSDOF 14
ENDMDL
MODEL 5
REMARK VINA RESULT:      -6.7      2.307      7.739
REMARK  Name = ./3D_structures\o61_MMV637879_3D.pdb
REMARK  17 active torsions:
REMARK  status: ('A' for Active; 'I' for Inactive)
REMARK    1  A    between atoms: C1_2  and  C30_40
REMARK    2  A    between atoms: N1_3  and  C2_4
REMARK    3  A    between atoms: C2_4  and  C3_5
REMARK    4  A    between atoms: C2_4  and  C28_36
REMARK    5  A    between atoms: N2_7  and  C4_8
REMARK    6  A    between atoms: C4_8  and  C5_9
REMARK    7  A    between atoms: C4_8  and  C21_29
REMARK    8  A    between atoms: C5_9  and  O3_10
REMARK    9  A    between atoms: C5_9  and  C6_11
REMARK   10  A    between atoms: C6_11  and  N3_12
REMARK   11  A    between atoms: C7_13  and  C8_14
REMARK   12  A    between atoms: N4_16  and  C9_17
REMARK   13  A    between atoms: C9_17  and  C10_18
REMARK   14  A    between atoms: C9_17  and  C11_19
REMARK   15  A    between atoms: C9_17  and  C12_20
REMARK   16  A    between atoms: C21_29  and  C22_30
REMARK   17  A    between atoms: C28_36  and  C29_37
REMARK                            x       y       z     vdW  Elec       q    Type
REMARK                         _______ _______ _______ _____ _____    ______ ____
ROOT
ATOM      1  C4  UNL     1     151.958 161.398 170.470  0.00  0.00    +0.000 C 
ENDROOT
BRANCH   1   4
ATOM      2  C3  UNL     1     151.651 163.703 169.446  0.00  0.00    +0.000 C 
ATOM      3  O2  UNL     1     152.874 163.601 169.079  0.00  0.00    +0.000 OA
ATOM      4  N2  UNL     1     151.168 162.571 170.168  0.00  0.00    +0.000 N 
ATOM      5  H3  UNL     1     150.180 162.592 170.496  0.00  0.00    +0.000 HD
BRANCH   2   6
ATOM      6  C2  UNL     1     150.860 164.878 169.140  0.00  0.00    +0.000 C 
BRANCH   6   9
ATOM      7  O1  UNL     1     149.108 165.929 166.955  0.00  0.00    +0.000 OA
ATOM      8  C1  UNL     1     148.709 165.086 167.784  0.00  0.00    +0.000 C 
ATOM      9  N1  UNL     1     149.505 164.589 168.820  0.00  0.00    +0.000 N 
ATOM     10  H1  UNL     1     149.002 163.879 169.469  0.00  0.00    +0.000 HD
BRANCH   8  11
ATOM     11  C30 UNL     1     147.312 164.631 167.604  0.00  0.00    +0.000 A 
ATOM     12  N6  UNL     1     146.791 164.445 166.376  0.00  0.00    +0.000 NA
ATOM     13  C31 UNL     1     145.504 164.030 166.248  0.00  0.00    +0.000 A 
ATOM     14  C32 UNL     1     144.933 163.830 164.995  0.00  0.00    +0.000 A 
ATOM     15  C33 UNL     1     143.619 163.408 164.856  0.00  0.00    +0.000 A 
ATOM     16  C34 UNL     1     142.850 163.178 165.996  0.00  0.00    +0.000 A 
ATOM     17  C35 UNL     1     143.382 163.367 167.232  0.00  0.00    +0.000 A 
ATOM     18  C36 UNL     1     144.697 163.788 167.353  0.00  0.00    +0.000 A 
ATOM     19  C37 UNL     1     145.216 163.973 168.611  0.00  0.00    +0.000 A 
ATOM     20  C38 UNL     1     146.527 164.396 168.701  0.00  0.00    +0.000 A 
ENDBRANCH   8  11
ENDBRANCH   6   9
BRANCH   6  21
ATOM     21  C28 UNL     1     150.959 166.003 170.158  0.00  0.00    +0.000 C 
BRANCH  21  22
ATOM     22  C29 UNL     1     151.222 167.316 169.576  0.00  0.00    +0.000 C 
ATOM     23  O5  UNL     1     151.311 168.329 170.312  0.00  0.00    +0.000 OA
ATOM     24  N5  UNL     1     151.383 167.484 168.180  0.00  0.00    +0.000 N 
ATOM     25  H43 UNL     1     150.635 167.310 167.474  0.00  0.00    +0.000 HD
ATOM     26  H44 UNL     1     152.307 167.806 167.814  0.00  0.00    +0.000 HD
ENDBRANCH  21  22
ENDBRANCH   6  21
ENDBRANCH   2   6
ENDBRANCH   1   4
BRANCH   1  27
ATOM     27  C5  UNL     1     151.540 160.269 169.558  0.00  0.00    +0.000 C 
BRANCH  27  28
ATOM     28  O3  UNL     1     150.202 159.998 169.939  0.00  0.00    +0.000 OA
ATOM     29  H6  UNL     1     150.168 159.434 170.737  0.00  0.00    +0.000 HD
ENDBRANCH  27  28
BRANCH  27  30
ATOM     30  C6  UNL     1     152.299 159.018 169.749  0.00  0.00    +0.000 C 
BRANCH  30  31
ATOM     31  N3  UNL     1     153.350 158.767 168.783  0.00  0.00    +0.000 NA
ATOM     32  C7  UNL     1     153.959 159.948 168.280  0.00  0.00    +0.000 C 
ATOM     33  C13 UNL     1     155.447 159.660 168.057  0.00  0.00    +0.000 C 
ATOM     34  C14 UNL     1     156.222 159.467 169.316  0.00  0.00    +0.000 C 
ATOM     35  C15 UNL     1     157.459 158.645 169.004  0.00  0.00    +0.000 C 
ATOM     36  C16 UNL     1     158.357 158.658 170.221  0.00  0.00    +0.000 C 
ATOM     37  C17 UNL     1     157.489 158.387 171.418  0.00  0.00    +0.000 C 
ATOM     38  C18 UNL     1     156.180 157.704 171.002  0.00  0.00    +0.000 C 
ATOM     39  C19 UNL     1     155.308 158.670 170.248  0.00  0.00    +0.000 C 
ATOM     40  C20 UNL     1     154.352 157.890 169.370  0.00  0.00    +0.000 C 
BRANCH  32  41
ATOM     41  C8  UNL     1     153.466 160.409 166.960  0.00  0.00    +0.000 C 
ATOM     42  O4  UNL     1     153.470 159.628 165.987  0.00  0.00    +0.000 OA
ATOM     43  N4  UNL     1     152.981 161.725 166.765  0.00  0.00    +0.000 N 
ATOM     44  H10 UNL     1     153.002 162.334 167.616  0.00  0.00    +0.000 HD
BRANCH  43  45
ATOM     45  C9  UNL     1     152.488 162.258 165.545  0.00  0.00    +0.000 C 
ATOM     46  C10 UNL     1     153.616 162.604 164.569  0.00  0.00    +0.000 C 
ATOM     47  C11 UNL     1     151.621 161.224 164.859  0.00  0.00    +0.000 C 
ATOM     48  C12 UNL     1     151.654 163.503 165.709  0.00  0.00    +0.000 C 
ENDBRANCH  43  45
ENDBRANCH  32  41
ENDBRANCH  30  31
ENDBRANCH  27  30
ENDBRANCH   1  27
BRANCH   1  49
ATOM     49  C21 UNL     1     152.016 161.029 171.904  0.00  0.00    +0.000 C 
BRANCH  49  50
ATOM     50  C22 UNL     1     153.451 161.057 172.347  0.00  0.00    +0.000 A 
ATOM     51  C23 UNL     1     154.379 161.870 171.738  0.00  0.00    +0.000 A 
ATOM     52  C24 UNL     1     155.698 161.926 172.119  0.00  0.00    +0.000 A 
ATOM     53  C25 UNL     1     156.109 161.128 173.164  0.00  0.00    +0.000 A 
ATOM     54  C26 UNL     1     155.210 160.302 173.798  0.00  0.00    +0.000 A 
ATOM     55  C27 UNL     1     153.897 160.272 173.389  0.00  0.00    +0.000 A 
ENDBRANCH  49  50
ENDBRANCH   1  49
TORSDOF 14
ENDMDL
MODEL 6
REMARK VINA RESULT:      -6.7      3.299      5.154
REMARK  Name = ./3D_structures\o61_MMV637879_3D.pdb
REMARK  17 active torsions:
REMARK  status: ('A' for Active; 'I' for Inactive)
REMARK    1  A    between atoms: C1_2  and  C30_40
REMARK    2  A    between atoms: N1_3  and  C2_4
REMARK    3  A    between atoms: C2_4  and  C3_5
REMARK    4  A    between atoms: C2_4  and  C28_36
REMARK    5  A    between atoms: N2_7  and  C4_8
REMARK    6  A    between atoms: C4_8  and  C5_9
REMARK    7  A    between atoms: C4_8  and  C21_29
REMARK    8  A    between atoms: C5_9  and  O3_10
REMARK    9  A    between atoms: C5_9  and  C6_11
REMARK   10  A    between atoms: C6_11  and  N3_12
REMARK   11  A    between atoms: C7_13  and  C8_14
REMARK   12  A    between atoms: N4_16  and  C9_17
REMARK   13  A    between atoms: C9_17  and  C10_18
REMARK   14  A    between atoms: C9_17  and  C11_19
REMARK   15  A    between atoms: C9_17  and  C12_20
REMARK   16  A    between atoms: C21_29  and  C22_30
REMARK   17  A    between atoms: C28_36  and  C29_37
REMARK                            x       y       z     vdW  Elec       q    Type
REMARK                         _______ _______ _______ _____ _____    ______ ____
ROOT
ATOM      1  C4  UNL     1     150.344 162.146 168.767  0.00  0.00    +0.000 C 
ENDROOT
BRANCH   1   4
ATOM      2  C3  UNL     1     150.868 160.179 170.289  0.00  0.00    +0.000 C 
ATOM      3  O2  UNL     1     149.752 159.692 169.890  0.00  0.00    +0.000 OA
ATOM      4  N2  UNL     1     151.183 161.448 169.716  0.00  0.00    +0.000 N 
ATOM      5  H3  UNL     1     152.077 161.898 170.001  0.00  0.00    +0.000 HD
BRANCH   2   6
ATOM      6  C2  UNL     1     151.709 159.477 171.238  0.00  0.00    +0.000 C 
BRANCH   6   9
ATOM      7  O1  UNL     1     153.154 157.628 169.383  0.00  0.00    +0.000 OA
ATOM      8  C1  UNL     1     153.731 158.558 169.981  0.00  0.00    +0.000 C 
ATOM      9  N1  UNL     1     153.079 159.428 170.862  0.00  0.00    +0.000 N 
ATOM     10  H1  UNL     1     153.727 160.170 171.318  0.00  0.00    +0.000 HD
BRANCH   8  11
ATOM     11  C30 UNL     1     155.178 158.694 169.701  0.00  0.00    +0.000 A 
ATOM     12  N6  UNL     1     155.716 159.883 169.369  0.00  0.00    +0.000 NA
ATOM     13  C31 UNL     1     157.047 159.971 169.114  0.00  0.00    +0.000 A 
ATOM     14  C32 UNL     1     157.636 161.182 168.766  0.00  0.00    +0.000 A 
ATOM     15  C33 UNL     1     158.994 161.280 168.502  0.00  0.00    +0.000 A 
ATOM     16  C34 UNL     1     159.791 160.139 168.587  0.00  0.00    +0.000 A 
ATOM     17  C35 UNL     1     159.242 158.943 168.924  0.00  0.00    +0.000 A 
ATOM     18  C36 UNL     1     157.882 158.863 169.185  0.00  0.00    +0.000 A 
ATOM     19  C37 UNL     1     157.347 157.644 169.522  0.00  0.00    +0.000 A 
ATOM     20  C38 UNL     1     155.990 157.594 169.774  0.00  0.00    +0.000 A 
ENDBRANCH   8  11
ENDBRANCH   6   9
BRANCH   6  21
ATOM     21  C28 UNL     1     151.549 159.914 172.685  0.00  0.00    +0.000 C 
BRANCH  21  22
ATOM     22  C29 UNL     1     152.654 160.724 173.191  0.00  0.00    +0.000 C 
ATOM     23  O5  UNL     1     153.658 160.175 173.704  0.00  0.00    +0.000 OA
ATOM     24  N5  UNL     1     152.624 162.138 173.119  0.00  0.00    +0.000 N 
ATOM     25  H43 UNL     1     151.937 162.741 173.622  0.00  0.00    +0.000 HD
ATOM     26  H44 UNL     1     153.332 162.627 172.527  0.00  0.00    +0.000 HD
ENDBRANCH  21  22
ENDBRANCH   6  21
ENDBRANCH   2   6
ENDBRANCH   1   4
BRANCH   1  27
ATOM     27  C5  UNL     1     150.771 161.781 167.366  0.00  0.00    +0.000 C 
BRANCH  27  28
ATOM     28  O3  UNL     1     149.811 160.826 166.951  0.00  0.00    +0.000 OA
ATOM     29  H6  UNL     1     150.205 159.933 166.884  0.00  0.00    +0.000 HD
ENDBRANCH  27  28
BRANCH  27  30
ATOM     30  C6  UNL     1     152.090 161.123 167.282  0.00  0.00    +0.000 C 
BRANCH  30  31
ATOM     31  N3  UNL     1     152.809 161.312 166.038  0.00  0.00    +0.000 NA
ATOM     32  C7  UNL     1     153.890 162.229 166.135  0.00  0.00    +0.000 C 
ATOM     33  C13 UNL     1     155.018 161.735 165.224  0.00  0.00    +0.000 C 
ATOM     34  C14 UNL     1     155.677 160.484 165.699  0.00  0.00    +0.000 C 
ATOM     35  C15 UNL     1     156.316 159.790 164.510  0.00  0.00    +0.000 C 
ATOM     36  C16 UNL     1     157.181 158.662 165.027  0.00  0.00    +0.000 C 
ATOM     37  C17 UNL     1     156.375 157.920 166.058  0.00  0.00    +0.000 C 
ATOM     38  C18 UNL     1     154.875 158.187 165.876  0.00  0.00    +0.000 C 
ATOM     39  C19 UNL     1     154.552 159.607 166.251  0.00  0.00    +0.000 C 
ATOM     40  C20 UNL     1     153.278 160.025 165.546  0.00  0.00    +0.000 C 
BRANCH  32  41
ATOM     41  C8  UNL     1     153.606 163.605 165.663  0.00  0.00    +0.000 C 
ATOM     42  O4  UNL     1     153.962 163.957 164.521  0.00  0.00    +0.000 OA
ATOM     43  N4  UNL     1     152.930 164.545 166.479  0.00  0.00    +0.000 N 
ATOM     44  H10 UNL     1     152.656 164.194 167.425  0.00  0.00    +0.000 HD
BRANCH  43  45
ATOM     45  C9  UNL     1     152.610 165.881 166.118  0.00  0.00    +0.000 C 
ATOM     46  C10 UNL     1     151.905 166.632 167.250  0.00  0.00    +0.000 C 
ATOM     47  C11 UNL     1     153.885 166.640 165.818  0.00  0.00    +0.000 C 
ATOM     48  C12 UNL     1     151.726 165.995 164.901  0.00  0.00    +0.000 C 
ENDBRANCH  43  45
ENDBRANCH  32  41
ENDBRANCH  30  31
ENDBRANCH  27  30
ENDBRANCH   1  27
BRANCH   1  49
ATOM     49  C21 UNL     1     150.206 163.603 169.000  0.00  0.00    +0.000 C 
BRANCH  49  50
ATOM     50  C22 UNL     1     148.765 163.904 169.300  0.00  0.00    +0.000 A 
ATOM     51  C23 UNL     1     148.393 165.030 169.998  0.00  0.00    +0.000 A 
ATOM     52  C24 UNL     1     147.086 165.341 170.285  0.00  0.00    +0.000 A 
ATOM     53  C25 UNL     1     146.100 164.481 169.852  0.00  0.00    +0.000 A 
ATOM     54  C26 UNL     1     146.434 163.345 169.151  0.00  0.00    +0.000 A 
ATOM     55  C27 UNL     1     147.754 163.066 168.881  0.00  0.00    +0.000 A 
ENDBRANCH  49  50
ENDBRANCH   1  49
TORSDOF 14
ENDMDL
MODEL 7
REMARK VINA RESULT:      -6.7      3.444      9.222
REMARK  Name = ./3D_structures\o61_MMV637879_3D.pdb
REMARK  17 active torsions:
REMARK  status: ('A' for Active; 'I' for Inactive)
REMARK    1  A    between atoms: C1_2  and  C30_40
REMARK    2  A    between atoms: N1_3  and  C2_4
REMARK    3  A    between atoms: C2_4  and  C3_5
REMARK    4  A    between atoms: C2_4  and  C28_36
REMARK    5  A    between atoms: N2_7  and  C4_8
REMARK    6  A    between atoms: C4_8  and  C5_9
REMARK    7  A    between atoms: C4_8  and  C21_29
REMARK    8  A    between atoms: C5_9  and  O3_10
REMARK    9  A    between atoms: C5_9  and  C6_11
REMARK   10  A    between atoms: C6_11  and  N3_12
REMARK   11  A    between atoms: C7_13  and  C8_14
REMARK   12  A    between atoms: N4_16  and  C9_17
REMARK   13  A    between atoms: C9_17  and  C10_18
REMARK   14  A    between atoms: C9_17  and  C11_19
REMARK   15  A    between atoms: C9_17  and  C12_20
REMARK   16  A    between atoms: C21_29  and  C22_30
REMARK   17  A    between atoms: C28_36  and  C29_37
REMARK                            x       y       z     vdW  Elec       q    Type
REMARK                         _______ _______ _______ _____ _____    ______ ____
ROOT
ATOM      1  C4  UNL     1     150.234 157.728 170.630  0.00  0.00    +0.000 C 
ENDROOT
BRANCH   1   4
ATOM      2  C3  UNL     1     147.959 157.951 169.520  0.00  0.00    +0.000 C 
ATOM      3  O2  UNL     1     147.485 157.456 170.603  0.00  0.00    +0.000 OA
ATOM      4  N2  UNL     1     149.379 158.094 169.522  0.00  0.00    +0.000 N 
ATOM      5  H3  UNL     1     149.826 158.488 168.669  0.00  0.00    +0.000 HD
BRANCH   2   6
ATOM      6  C2  UNL     1     147.100 158.318 168.412  0.00  0.00    +0.000 C 
BRANCH   6   9
ATOM      7  O1  UNL     1     145.412 160.726 168.967  0.00  0.00    +0.000 OA
ATOM      8  C1  UNL     1     146.450 160.783 168.278  0.00  0.00    +0.000 C 
ATOM      9  N1  UNL     1     147.249 159.670 167.996  0.00  0.00    +0.000 N 
ATOM     10  H1  UNL     1     148.107 159.884 167.365  0.00  0.00    +0.000 HD
BRANCH   8  11
ATOM     11  C30 UNL     1     146.799 162.127 167.765  0.00  0.00    +0.000 A 
ATOM     12  N6  UNL     1     145.879 162.904 167.162  0.00  0.00    +0.000 NA
ATOM     13  C31 UNL     1     146.235 164.130 166.699  0.00  0.00    +0.000 A 
ATOM     14  C32 UNL     1     145.311 164.958 166.069  0.00  0.00    +0.000 A 
ATOM     15  C33 UNL     1     145.667 166.211 165.592  0.00  0.00    +0.000 A 
ATOM     16  C34 UNL     1     146.980 166.654 165.746  0.00  0.00    +0.000 A 
ATOM     17  C35 UNL     1     147.902 165.865 166.356  0.00  0.00    +0.000 A 
ATOM     18  C36 UNL     1     147.530 164.616 166.828  0.00  0.00    +0.000 A 
ATOM     19  C37 UNL     1     148.478 163.835 167.441  0.00  0.00    +0.000 A 
ATOM     20  C38 UNL     1     148.079 162.594 167.898  0.00  0.00    +0.000 A 
ENDBRANCH   8  11
ENDBRANCH   6   9
BRANCH   6  21
ATOM     21  C28 UNL     1     147.137 157.369 167.226  0.00  0.00    +0.000 C 
BRANCH  21  22
ATOM     22  C29 UNL     1     146.605 157.934 165.989  0.00  0.00    +0.000 C 
ATOM     23  O5  UNL     1     147.298 158.726 165.306  0.00  0.00    +0.000 OA
ATOM     24  N5  UNL     1     145.306 157.609 165.530  0.00  0.00    +0.000 N 
ATOM     25  H43 UNL     1     144.424 157.851 166.032  0.00  0.00    +0.000 HD
ATOM     26  H44 UNL     1     145.205 157.093 164.626  0.00  0.00    +0.000 HD
ENDBRANCH  21  22
ENDBRANCH   6  21
ENDBRANCH   2   6
ENDBRANCH   1   4
BRANCH   1  27
ATOM     27  C5  UNL     1     151.102 158.908 170.996  0.00  0.00    +0.000 C 
BRANCH  27  28
ATOM     28  O3  UNL     1     150.822 159.128 172.368  0.00  0.00    +0.000 OA
ATOM     29  H6  UNL     1     151.643 159.274 172.878  0.00  0.00    +0.000 HD
ENDBRANCH  27  28
BRANCH  27  30
ATOM     30  C6  UNL     1     150.764 160.157 170.286  0.00  0.00    +0.000 C 
BRANCH  30  31
ATOM     31  N3  UNL     1     151.889 160.987 169.903  0.00  0.00    +0.000 NA
ATOM     32  C7  UNL     1     153.102 160.265 169.738  0.00  0.00    +0.000 C 
ATOM     33  C13 UNL     1     153.884 160.905 168.586  0.00  0.00    +0.000 C 
ATOM     34  C14 UNL     1     153.261 160.704 167.246  0.00  0.00    +0.000 C 
ATOM     35  C15 UNL     1     153.740 161.805 166.317  0.00  0.00    +0.000 C 
ATOM     36  C16 UNL     1     153.304 161.463 164.911  0.00  0.00    +0.000 C 
ATOM     37  C17 UNL     1     151.863 161.037 164.982  0.00  0.00    +0.000 C 
ATOM     38  C18 UNL     1     151.200 161.561 166.262  0.00  0.00    +0.000 C 
ATOM     39  C19 UNL     1     151.754 160.846 167.463  0.00  0.00    +0.000 C 
ATOM     40  C20 UNL     1     151.563 161.718 168.687  0.00  0.00    +0.000 C 
BRANCH  32  41
ATOM     41  C8  UNL     1     154.033 160.308 170.890  0.00  0.00    +0.000 C 
ATOM     42  O4  UNL     1     153.655 160.788 171.978  0.00  0.00    +0.000 OA
ATOM     43  N4  UNL     1     155.356 159.812 170.795  0.00  0.00    +0.000 N 
ATOM     44  H10 UNL     1     155.616 159.422 169.860  0.00  0.00    +0.000 HD
BRANCH  43  45
ATOM     45  C9  UNL     1     156.319 159.808 171.839  0.00  0.00    +0.000 C 
ATOM     46  C10 UNL     1     157.453 158.814 171.574  0.00  0.00    +0.000 C 
ATOM     47  C11 UNL     1     156.955 161.177 171.944  0.00  0.00    +0.000 C 
ATOM     48  C12 UNL     1     155.753 159.473 173.197  0.00  0.00    +0.000 C 
ENDBRANCH  43  45
ENDBRANCH  32  41
ENDBRANCH  30  31
ENDBRANCH  27  30
ENDBRANCH   1  27
BRANCH   1  49
ATOM     49  C21 UNL     1     150.978 156.457 170.459  0.00  0.00    +0.000 C 
BRANCH  49  50
ATOM     50  C22 UNL     1     150.322 155.403 171.304  0.00  0.00    +0.000 A 
ATOM     51  C23 UNL     1     150.017 155.626 172.627  0.00  0.00    +0.000 A 
ATOM     52  C24 UNL     1     149.412 154.688 173.430  0.00  0.00    +0.000 A 
ATOM     53  C25 UNL     1     149.097 153.465 172.880  0.00  0.00    +0.000 A 
ATOM     54  C26 UNL     1     149.387 153.205 171.560  0.00  0.00    +0.000 A 
ATOM     55  C27 UNL     1     149.994 154.169 170.786  0.00  0.00    +0.000 A 
ENDBRANCH  49  50
ENDBRANCH   1  49
TORSDOF 14
ENDMDL
MODEL 8
REMARK VINA RESULT:      -6.5      2.262      6.280
REMARK  Name = ./3D_structures\o61_MMV637879_3D.pdb
REMARK  17 active torsions:
REMARK  status: ('A' for Active; 'I' for Inactive)
REMARK    1  A    between atoms: C1_2  and  C30_40
REMARK    2  A    between atoms: N1_3  and  C2_4
REMARK    3  A    between atoms: C2_4  and  C3_5
REMARK    4  A    between atoms: C2_4  and  C28_36
REMARK    5  A    between atoms: N2_7  and  C4_8
REMARK    6  A    between atoms: C4_8  and  C5_9
REMARK    7  A    between atoms: C4_8  and  C21_29
REMARK    8  A    between atoms: C5_9  and  O3_10
REMARK    9  A    between atoms: C5_9  and  C6_11
REMARK   10  A    between atoms: C6_11  and  N3_12
REMARK   11  A    between atoms: C7_13  and  C8_14
REMARK   12  A    between atoms: N4_16  and  C9_17
REMARK   13  A    between atoms: C9_17  and  C10_18
REMARK   14  A    between atoms: C9_17  and  C11_19
REMARK   15  A    between atoms: C9_17  and  C12_20
REMARK   16  A    between atoms: C21_29  and  C22_30
REMARK   17  A    between atoms: C28_36  and  C29_37
REMARK                            x       y       z     vdW  Elec       q    Type
REMARK                         _______ _______ _______ _____ _____    ______ ____
ROOT
ATOM      1  C4  UNL     1     152.029 167.604 169.854  0.00  0.00    +0.000 C 
ENDROOT
BRANCH   1   4
ATOM      2  C3  UNL     1     150.902 165.436 170.552  0.00  0.00    +0.000 C 
ATOM      3  O2  UNL     1     149.805 166.005 170.215  0.00  0.00    +0.000 OA
ATOM      4  N2  UNL     1     152.057 166.253 170.371  0.00  0.00    +0.000 N 
ATOM      5  H3  UNL     1     152.981 165.849 170.629  0.00  0.00    +0.000 HD
BRANCH   2   6
ATOM      6  C2  UNL     1     150.928 164.082 171.068  0.00  0.00    +0.000 C 
BRANCH   6   9
ATOM      7  O1  UNL     1     149.857 161.687 169.630  0.00  0.00    +0.000 OA
ATOM      8  C1  UNL     1     151.048 162.045 169.535  0.00  0.00    +0.000 C 
ATOM      9  N1  UNL     1     151.575 163.154 170.206  0.00  0.00    +0.000 N 
ATOM     10  H1  UNL     1     152.634 163.318 170.035  0.00  0.00    +0.000 HD
BRANCH   8  11
ATOM     11  C30 UNL     1     151.894 161.211 168.651  0.00  0.00    +0.000 A 
ATOM     12  N6  UNL     1     152.495 160.097 169.109  0.00  0.00    +0.000 NA
ATOM     13  C31 UNL     1     153.268 159.358 168.271  0.00  0.00    +0.000 A 
ATOM     14  C32 UNL     1     153.906 158.202 168.710  0.00  0.00    +0.000 A 
ATOM     15  C33 UNL     1     154.697 157.443 167.862  0.00  0.00    +0.000 A 
ATOM     16  C34 UNL     1     154.859 157.844 166.536  0.00  0.00    +0.000 A 
ATOM     17  C35 UNL     1     154.248 158.969 166.081  0.00  0.00    +0.000 A 
ATOM     18  C36 UNL     1     153.460 159.716 166.942  0.00  0.00    +0.000 A 
ATOM     19  C37 UNL     1     152.852 160.850 166.462  0.00  0.00    +0.000 A 
ATOM     20  C38 UNL     1     152.075 161.576 167.344  0.00  0.00    +0.000 A 
ENDBRANCH   8  11
ENDBRANCH   6   9
BRANCH   6  21
ATOM     21  C28 UNL     1     151.428 163.948 172.497  0.00  0.00    +0.000 C 
BRANCH  21  22
ATOM     22  C29 UNL     1     152.763 163.368 172.613  0.00  0.00    +0.000 C 
ATOM     23  O5  UNL     1     152.909 162.124 172.687  0.00  0.00    +0.000 OA
ATOM     24  N5  UNL     1     153.920 164.183 172.646  0.00  0.00    +0.000 N 
ATOM     25  H43 UNL     1     154.140 164.866 173.403  0.00  0.00    +0.000 HD
ATOM     26  H44 UNL     1     154.613 164.106 171.867  0.00  0.00    +0.000 HD
ENDBRANCH  21  22
ENDBRANCH   6  21
ENDBRANCH   2   6
ENDBRANCH   1   4
BRANCH   1  27
ATOM     27  C5  UNL     1     152.620 167.615 168.465  0.00  0.00    +0.000 C 
BRANCH  27  28
ATOM     28  O3  UNL     1     153.054 168.952 168.287  0.00  0.00    +0.000 OA
ATOM     29  H6  UNL     1     153.603 169.250 169.039  0.00  0.00    +0.000 HD
ENDBRANCH  27  28
BRANCH  27  30
ATOM     30  C6  UNL     1     151.651 167.335 167.387  0.00  0.00    +0.000 C 
BRANCH  30  31
ATOM     31  N3  UNL     1     151.501 165.940 167.024  0.00  0.00    +0.000 NA
ATOM     32  C7  UNL     1     150.592 165.722 165.953  0.00  0.00    +0.000 C 
ATOM     33  C13 UNL     1     151.120 164.558 165.109  0.00  0.00    +0.000 C 
ATOM     34  C14 UNL     1     152.366 164.874 164.352  0.00  0.00    +0.000 C 
ATOM     35  C15 UNL     1     153.096 163.577 164.054  0.00  0.00    +0.000 C 
ATOM     36  C16 UNL     1     154.219 163.876 163.087  0.00  0.00    +0.000 C 
ATOM     37  C17 UNL     1     154.928 165.102 163.592  0.00  0.00    +0.000 C 
ATOM     38  C18 UNL     1     154.650 165.318 165.086  0.00  0.00    +0.000 C 
ATOM     39  C19 UNL     1     153.218 165.727 165.293  0.00  0.00    +0.000 C 
ATOM     40  C20 UNL     1     152.804 165.376 166.707  0.00  0.00    +0.000 C 
BRANCH  32  41
ATOM     41  C8  UNL     1     149.225 165.306 166.348  0.00  0.00    +0.000 C 
ATOM     42  O4  UNL     1     149.062 164.276 167.031  0.00  0.00    +0.000 OA
ATOM     43  N4  UNL     1     148.083 166.055 165.973  0.00  0.00    +0.000 N 
ATOM     44  H10 UNL     1     148.282 166.908 165.402  0.00  0.00    +0.000 HD
BRANCH  43  45
ATOM     45  C9  UNL     1     146.739 165.741 166.303  0.00  0.00    +0.000 C 
ATOM     46  C10 UNL     1     146.531 165.607 167.814  0.00  0.00    +0.000 C 
ATOM     47  C11 UNL     1     145.831 166.859 165.837  0.00  0.00    +0.000 C 
ATOM     48  C12 UNL     1     146.233 164.465 165.677  0.00  0.00    +0.000 C 
ENDBRANCH  43  45
ENDBRANCH  32  41
ENDBRANCH  30  31
ENDBRANCH  27  30
ENDBRANCH   1  27
BRANCH   1  49
ATOM     49  C21 UNL     1     152.585 168.638 170.759  0.00  0.00    +0.000 C 
BRANCH  49  50
ATOM     50  C22 UNL     1     151.465 169.532 171.208  0.00  0.00    +0.000 A 
ATOM     51  C23 UNL     1     150.409 169.052 171.947  0.00  0.00    +0.000 A 
ATOM     52  C24 UNL     1     149.370 169.841 172.379  0.00  0.00    +0.000 A 
ATOM     53  C25 UNL     1     149.390 171.179 172.056  0.00  0.00    +0.000 A 
ATOM     54  C26 UNL     1     150.429 171.697 171.318  0.00  0.00    +0.000 A 
ATOM     55  C27 UNL     1     151.453 170.877 170.902  0.00  0.00    +0.000 A 
ENDBRANCH  49  50
ENDBRANCH   1  49
TORSDOF 14
ENDMDL
MODEL 9
REMARK VINA RESULT:      -6.5      1.920      2.699
REMARK  Name = ./3D_structures\o61_MMV637879_3D.pdb
REMARK  17 active torsions:
REMARK  status: ('A' for Active; 'I' for Inactive)
REMARK    1  A    between atoms: C1_2  and  C30_40
REMARK    2  A    between atoms: N1_3  and  C2_4
REMARK    3  A    between atoms: C2_4  and  C3_5
REMARK    4  A    between atoms: C2_4  and  C28_36
REMARK    5  A    between atoms: N2_7  and  C4_8
REMARK    6  A    between atoms: C4_8  and  C5_9
REMARK    7  A    between atoms: C4_8  and  C21_29
REMARK    8  A    between atoms: C5_9  and  O3_10
REMARK    9  A    between atoms: C5_9  and  C6_11
REMARK   10  A    between atoms: C6_11  and  N3_12
REMARK   11  A    between atoms: C7_13  and  C8_14
REMARK   12  A    between atoms: N4_16  and  C9_17
REMARK   13  A    between atoms: C9_17  and  C10_18
REMARK   14  A    between atoms: C9_17  and  C11_19
REMARK   15  A    between atoms: C9_17  and  C12_20
REMARK   16  A    between atoms: C21_29  and  C22_30
REMARK   17  A    between atoms: C28_36  and  C29_37
REMARK                            x       y       z     vdW  Elec       q    Type
REMARK                         _______ _______ _______ _____ _____    ______ ____
ROOT
ATOM      1  C4  UNL     1     149.973 164.203 169.107  0.00  0.00    +0.000 C 
ENDROOT
BRANCH   1   4
ATOM      2  C3  UNL     1     151.077 164.791 171.319  0.00  0.00    +0.000 C 
ATOM      3  O2  UNL     1     149.908 165.155 171.699  0.00  0.00    +0.000 OA
ATOM      4  N2  UNL     1     151.122 164.299 169.980  0.00  0.00    +0.000 N 
ATOM      5  H3  UNL     1     152.044 163.989 169.610  0.00  0.00    +0.000 HD
BRANCH   2   6
ATOM      6  C2  UNL     1     152.226 164.887 172.197  0.00  0.00    +0.000 C 
BRANCH   6   9
ATOM      7  O1  UNL     1     153.984 163.972 169.955  0.00  0.00    +0.000 OA
ATOM      8  C1  UNL     1     153.931 163.375 171.048  0.00  0.00    +0.000 C 
ATOM      9  N1  UNL     1     153.109 163.776 172.107  0.00  0.00    +0.000 N 
ATOM     10  H1  UNL     1     153.163 163.136 172.982  0.00  0.00    +0.000 HD
BRANCH   8  11
ATOM     11  C30 UNL     1     154.808 162.188 171.167  0.00  0.00    +0.000 A 
ATOM     12  N6  UNL     1     155.723 161.899 170.221  0.00  0.00    +0.000 NA
ATOM     13  C31 UNL     1     156.508 160.800 170.359  0.00  0.00    +0.000 A 
ATOM     14  C32 UNL     1     157.461 160.470 169.401  0.00  0.00    +0.000 A 
ATOM     15  C33 UNL     1     158.266 159.349 169.534  0.00  0.00    +0.000 A 
ATOM     16  C34 UNL     1     158.119 158.530 170.653  0.00  0.00    +0.000 A 
ATOM     17  C35 UNL     1     157.196 158.829 171.604  0.00  0.00    +0.000 A 
ATOM     18  C36 UNL     1     156.399 159.954 171.456  0.00  0.00    +0.000 A 
ATOM     19  C37 UNL     1     155.472 160.237 172.428  0.00  0.00    +0.000 A 
ATOM     20  C38 UNL     1     154.691 161.362 172.252  0.00  0.00    +0.000 A 
ENDBRANCH   8  11
ENDBRANCH   6   9
BRANCH   6  21
ATOM     21  C28 UNL     1     152.985 166.202 172.122  0.00  0.00    +0.000 C 
BRANCH  21  22
ATOM     22  C29 UNL     1     152.633 167.032 170.973  0.00  0.00    +0.000 C 
ATOM     23  O5  UNL     1     151.704 167.872 171.059  0.00  0.00    +0.000 OA
ATOM     24  N5  UNL     1     153.320 166.915 169.741  0.00  0.00    +0.000 N 
ATOM     25  H43 UNL     1     153.315 166.063 169.140  0.00  0.00    +0.000 HD
ATOM     26  H44 UNL     1     153.875 167.730 169.394  0.00  0.00    +0.000 HD
ENDBRANCH  21  22
ENDBRANCH   6  21
ENDBRANCH   2   6
ENDBRANCH   1   4
BRANCH   1  27
ATOM     27  C5  UNL     1     149.817 162.772 168.651  0.00  0.00    +0.000 C 
BRANCH  27  28
ATOM     28  O3  UNL     1     148.764 162.268 169.455  0.00  0.00    +0.000 OA
ATOM     29  H6  UNL     1     148.200 162.991 169.794  0.00  0.00    +0.000 HD
ENDBRANCH  27  28
BRANCH  27  30
ATOM     30  C6  UNL     1     150.994 161.918 168.906  0.00  0.00    +0.000 C 
BRANCH  30  31
ATOM     31  N3  UNL     1     151.526 161.220 167.753  0.00  0.00    +0.000 NA
ATOM     32  C7  UNL     1     152.747 161.763 167.269  0.00  0.00    +0.000 C 
ATOM     33  C13 UNL     1     153.616 160.607 166.764  0.00  0.00    +0.000 C 
ATOM     34  C14 UNL     1     154.124 159.714 167.846  0.00  0.00    +0.000 C 
ATOM     35  C15 UNL     1     154.440 158.356 167.246  0.00  0.00    +0.000 C 
ATOM     36  C16 UNL     1     155.176 157.538 168.284  0.00  0.00    +0.000 C 
ATOM     37  C17 UNL     1     154.432 157.694 169.582  0.00  0.00    +0.000 C 
ATOM     38  C18 UNL     1     152.989 158.150 169.335  0.00  0.00    +0.000 C 
ATOM     39  C19 UNL     1     152.971 159.570 168.841  0.00  0.00    +0.000 C 
ATOM     40  C20 UNL     1     151.689 159.809 168.070  0.00  0.00    +0.000 C 
BRANCH  32  41
ATOM     41  C8  UNL     1     152.624 162.673 166.105  0.00  0.00    +0.000 C 
ATOM     42  O4  UNL     1     152.169 162.244 165.026  0.00  0.00    +0.000 OA
ATOM     43  N4  UNL     1     153.010 164.033 166.181  0.00  0.00    +0.000 N 
ATOM     44  H10 UNL     1     153.384 164.335 167.110  0.00  0.00    +0.000 HD
BRANCH  43  45
ATOM     45  C9  UNL     1     152.930 164.980 165.126  0.00  0.00    +0.000 C 
ATOM     46  C10 UNL     1     153.497 166.344 165.530  0.00  0.00    +0.000 C 
ATOM     47  C11 UNL     1     153.753 164.497 163.951  0.00  0.00    +0.000 C 
ATOM     48  C12 UNL     1     151.529 165.222 164.621  0.00  0.00    +0.000 C 
ENDBRANCH  43  45
ENDBRANCH  32  41
ENDBRANCH  30  31
ENDBRANCH  27  30
ENDBRANCH   1  27
BRANCH   1  49
ATOM     49  C21 UNL     1     149.930 165.197 168.009  0.00  0.00    +0.000 C 
BRANCH  49  50
ATOM     50  C22 UNL     1     148.496 165.424 167.626  0.00  0.00    +0.000 A 
ATOM     51  C23 UNL     1     148.148 165.927 166.394  0.00  0.00    +0.000 A 
ATOM     52  C24 UNL     1     146.847 166.142 166.007  0.00  0.00    +0.000 A 
ATOM     53  C25 UNL     1     145.842 165.837 166.899  0.00  0.00    +0.000 A 
ATOM     54  C26 UNL     1     146.151 165.331 168.141  0.00  0.00    +0.000 A 
ATOM     55  C27 UNL     1     147.466 165.129 168.494  0.00  0.00    +0.000 A 
ENDBRANCH  49  50
ENDBRANCH   1  49
TORSDOF 14
ENDMDL
