MODEL 1
REMARK VINA RESULT:      -7.2      0.000      0.000
REMARK  Name = ./3D_structures\o7_MMV1165877_3D.pdb
REMARK  2 active torsions:
REMARK  status: ('A' for Active; 'I' for Inactive)
REMARK    1  A    between atoms: C4_5  and  C5_6
REMARK    2  A    between atoms: C6_9  and  C16_21
REMARK                            x       y       z     vdW  Elec       q    Type
REMARK                         _______ _______ _______ _____ _____    ______ ____
ROOT
ATOM      1  C5  UNL     1     155.517 159.970 165.933  0.00  0.00    +0.000 C 
ATOM      2  O1  UNL     1     155.626 158.850 165.314  0.00  0.00    +0.000 OA
ATOM      3  N1  UNL     1     156.419 160.162 166.990  0.00  0.00    +0.000 N 
ATOM      4  C6  UNL     1     157.402 159.238 167.537  0.00  0.00    +0.000 C 
ATOM      5  N2  UNL     1     158.550 160.130 167.483  0.00  0.00    +0.000 N 
ATOM      6  C7  UNL     1     159.564 159.483 166.769  0.00  0.00    +0.000 C 
ATOM      7  O2  UNL     1     160.732 159.945 166.537  0.00  0.00    +0.000 OA
ATOM      8  C8  UNL     1     159.050 158.190 166.335  0.00  0.00    +0.000 A 
ATOM      9  C9  UNL     1     157.757 158.066 166.788  0.00  0.00    +0.000 A 
ATOM     10  C10 UNL     1     157.113 156.865 166.455  0.00  0.00    +0.000 A 
ATOM     11  C11 UNL     1     157.686 155.856 165.734  0.00  0.00    +0.000 A 
ATOM     12  C12 UNL     1     158.984 156.023 165.300  0.00  0.00    +0.000 A 
ATOM     13  C13 UNL     1     159.672 157.181 165.595  0.00  0.00    +0.000 A 
ATOM     14  C14 UNL     1     158.095 161.327 168.191  0.00  0.00    +0.000 C 
ATOM     15  C15 UNL     1     156.631 161.407 167.728  0.00  0.00    +0.000 C 
ENDROOT
BRANCH   1  20
ATOM     16  F1  UNL     1     151.718 163.529 163.806  0.00  0.00    +0.000 F 
ATOM     17  C1  UNL     1     152.638 162.670 164.332  0.00  0.00    +0.000 A 
ATOM     18  C2  UNL     1     153.968 162.946 164.311  0.00  0.00    +0.000 A 
ATOM     19  C3  UNL     1     154.854 162.064 164.847  0.00  0.00    +0.000 A 
ATOM     20  C4  UNL     1     154.487 160.846 165.441  0.00  0.00    +0.000 A 
ATOM     21  C22 UNL     1     153.134 160.600 165.443  0.00  0.00    +0.000 A 
ATOM     22  C23 UNL     1     152.211 161.499 164.895  0.00  0.00    +0.000 A 
ENDBRANCH   1  20
BRANCH   4  23
ATOM     23  C16 UNL     1     157.093 158.941 168.972  0.00  0.00    +0.000 A 
ATOM     24  C17 UNL     1     155.779 158.820 169.365  0.00  0.00    +0.000 A 
ATOM     25  C18 UNL     1     155.446 158.537 170.690  0.00  0.00    +0.000 A 
ATOM     26  C19 UNL     1     156.494 158.387 171.572  0.00  0.00    +0.000 A 
ATOM     27  C20 UNL     1     157.810 158.510 171.167  0.00  0.00    +0.000 A 
ATOM     28  C21 UNL     1     158.140 158.792 169.849  0.00  0.00    +0.000 A 
ENDBRANCH   4  23
TORSDOF 2
ENDMDL
MODEL 2
REMARK VINA RESULT:      -6.9      4.238      7.320
REMARK  Name = ./3D_structures\o7_MMV1165877_3D.pdb
REMARK  2 active torsions:
REMARK  status: ('A' for Active; 'I' for Inactive)
REMARK    1  A    between atoms: C4_5  and  C5_6
REMARK    2  A    between atoms: C6_9  and  C16_21
REMARK                            x       y       z     vdW  Elec       q    Type
REMARK                         _______ _______ _______ _____ _____    ______ ____
ROOT
ATOM      1  C5  UNL     1     153.930 159.220 168.103  0.00  0.00    +0.000 C 
ATOM      2  O1  UNL     1     153.846 160.397 167.599  0.00  0.00    +0.000 OA
ATOM      3  N1  UNL     1     153.047 158.955 169.162  0.00  0.00    +0.000 N 
ATOM      4  C6  UNL     1     152.110 159.853 169.821  0.00  0.00    +0.000 C 
ATOM      5  N2  UNL     1     150.931 159.008 169.713  0.00  0.00    +0.000 N 
ATOM      6  C7  UNL     1     149.923 159.754 169.092  0.00  0.00    +0.000 C 
ATOM      7  O2  UNL     1     148.735 159.355 168.848  0.00  0.00    +0.000 OA
ATOM      8  C8  UNL     1     150.471 161.066 168.771  0.00  0.00    +0.000 A 
ATOM      9  C9  UNL     1     151.779 161.103 169.198  0.00  0.00    +0.000 A 
ATOM     10  C10 UNL     1     152.456 162.310 168.966  0.00  0.00    +0.000 A 
ATOM     11  C11 UNL     1     151.901 163.401 168.361  0.00  0.00    +0.000 A 
ATOM     12  C12 UNL     1     150.588 163.320 167.949  0.00  0.00    +0.000 A 
ATOM     13  C13 UNL     1     149.868 162.162 168.149  0.00  0.00    +0.000 A 
ATOM     14  C14 UNL     1     151.361 157.734 170.289  0.00  0.00    +0.000 C 
ATOM     15  C15 UNL     1     152.810 157.651 169.781  0.00  0.00    +0.000 C 
ENDROOT
BRANCH   1  20
ATOM     16  F1  UNL     1     157.845 155.743 166.052  0.00  0.00    +0.000 F 
ATOM     17  C1  UNL     1     156.901 156.595 166.547  0.00  0.00    +0.000 A 
ATOM     18  C2  UNL     1     156.906 156.992 167.846  0.00  0.00    +0.000 A 
ATOM     19  C3  UNL     1     155.948 157.844 168.300  0.00  0.00    +0.000 A 
ATOM     20  C4  UNL     1     154.916 158.363 167.502  0.00  0.00    +0.000 A 
ATOM     21  C22 UNL     1     154.942 157.939 166.194  0.00  0.00    +0.000 A 
ATOM     22  C23 UNL     1     155.923 157.062 165.713  0.00  0.00    +0.000 A 
ENDBRANCH   1  20
BRANCH   4  23
ATOM     23  C16 UNL     1     152.463 159.998 171.269  0.00  0.00    +0.000 A 
ATOM     24  C17 UNL     1     153.787 160.120 171.629  0.00  0.00    +0.000 A 
ATOM     25  C18 UNL     1     154.161 160.265 172.965  0.00  0.00    +0.000 A 
ATOM     26  C19 UNL     1     153.141 160.280 173.894  0.00  0.00    +0.000 A 
ATOM     27  C20 UNL     1     151.816 160.158 173.522  0.00  0.00    +0.000 A 
ATOM     28  C21 UNL     1     151.446 160.013 172.192  0.00  0.00    +0.000 A 
ENDBRANCH   4  23
TORSDOF 2
ENDMDL
MODEL 3
REMARK VINA RESULT:      -6.9      7.185      9.864
REMARK  Name = ./3D_structures\o7_MMV1165877_3D.pdb
REMARK  2 active torsions:
REMARK  status: ('A' for Active; 'I' for Inactive)
REMARK    1  A    between atoms: C4_5  and  C5_6
REMARK    2  A    between atoms: C6_9  and  C16_21
REMARK                            x       y       z     vdW  Elec       q    Type
REMARK                         _______ _______ _______ _____ _____    ______ ____
ROOT
ATOM      1  C5  UNL     1     151.179 165.022 165.496  0.00  0.00    +0.000 C 
ATOM      2  O1  UNL     1     150.215 165.567 164.847  0.00  0.00    +0.000 OA
ATOM      3  N1  UNL     1     150.871 164.622 166.805  0.00  0.00    +0.000 N 
ATOM      4  C6  UNL     1     149.640 164.813 167.557  0.00  0.00    +0.000 C 
ATOM      5  N2  UNL     1     149.453 163.431 167.969  0.00  0.00    +0.000 N 
ATOM      6  C7  UNL     1     148.172 163.033 167.573  0.00  0.00    +0.000 C 
ATOM      7  O2  UNL     1     147.640 161.891 167.783  0.00  0.00    +0.000 OA
ATOM      8  C8  UNL     1     147.552 164.153 166.875  0.00  0.00    +0.000 A 
ATOM      9  C9  UNL     1     148.445 165.199 166.862  0.00  0.00    +0.000 A 
ATOM     10  C10 UNL     1     147.998 166.367 166.226  0.00  0.00    +0.000 A 
ATOM     11  C11 UNL     1     146.770 166.506 165.644  0.00  0.00    +0.000 A 
ATOM     12  C12 UNL     1     145.907 165.432 165.681  0.00  0.00    +0.000 A 
ATOM     13  C13 UNL     1     146.286 164.256 166.292  0.00  0.00    +0.000 A 
ATOM     14  C14 UNL     1     150.728 163.078 168.594  0.00  0.00    +0.000 C 
ATOM     15  C15 UNL     1     151.721 163.818 167.684  0.00  0.00    +0.000 C 
ENDROOT
BRANCH   1  20
ATOM     16  F1  UNL     1     155.866 164.408 162.449  0.00  0.00    +0.000 F 
ATOM     17  C1  UNL     1     154.733 164.552 163.196  0.00  0.00    +0.000 A 
ATOM     18  C2  UNL     1     153.709 163.664 163.121  0.00  0.00    +0.000 A 
ATOM     19  C3  UNL     1     152.597 163.841 163.884  0.00  0.00    +0.000 A 
ATOM     20  C4  UNL     1     152.419 164.911 164.775  0.00  0.00    +0.000 A 
ATOM     21  C22 UNL     1     153.475 165.791 164.825  0.00  0.00    +0.000 A 
ATOM     22  C23 UNL     1     154.626 165.619 164.045  0.00  0.00    +0.000 A 
ENDBRANCH   1  20
BRANCH   4  23
ATOM     23  C16 UNL     1     149.900 165.644 168.776  0.00  0.00    +0.000 A 
ATOM     24  C17 UNL     1     150.753 166.721 168.685  0.00  0.00    +0.000 A 
ATOM     25  C18 UNL     1     151.019 167.526 169.792  0.00  0.00    +0.000 A 
ATOM     26  C19 UNL     1     150.386 167.187 170.969  0.00  0.00    +0.000 A 
ATOM     27  C20 UNL     1     149.531 166.105 171.050  0.00  0.00    +0.000 A 
ATOM     28  C21 UNL     1     149.268 165.304 169.947  0.00  0.00    +0.000 A 
ENDBRANCH   4  23
TORSDOF 2
ENDMDL
MODEL 4
REMARK VINA RESULT:      -6.7      6.012     10.025
REMARK  Name = ./3D_structures\o7_MMV1165877_3D.pdb
REMARK  2 active torsions:
REMARK  status: ('A' for Active; 'I' for Inactive)
REMARK    1  A    between atoms: C4_5  and  C5_6
REMARK    2  A    between atoms: C6_9  and  C16_21
REMARK                            x       y       z     vdW  Elec       q    Type
REMARK                         _______ _______ _______ _____ _____    ______ ____
ROOT
ATOM      1  C5  UNL     1     150.830 161.665 170.015  0.00  0.00    +0.000 C 
ATOM      2  O1  UNL     1     149.870 160.860 169.739  0.00  0.00    +0.000 OA
ATOM      3  N1  UNL     1     150.665 162.979 169.549  0.00  0.00    +0.000 N 
ATOM      4  C6  UNL     1     149.601 163.533 168.726  0.00  0.00    +0.000 C 
ATOM      5  N2  UNL     1     149.278 164.669 169.574  0.00  0.00    +0.000 N 
ATOM      6  C7  UNL     1     147.908 164.623 169.853  0.00  0.00    +0.000 C 
ATOM      7  O2  UNL     1     147.252 165.471 170.548  0.00  0.00    +0.000 OA
ATOM      8  C8  UNL     1     147.361 163.435 169.210  0.00  0.00    +0.000 A 
ATOM      9  C9  UNL     1     148.385 162.789 168.556  0.00  0.00    +0.000 A 
ATOM     10  C10 UNL     1     148.023 161.617 167.875  0.00  0.00    +0.000 A 
ATOM     11  C11 UNL     1     146.756 161.109 167.835  0.00  0.00    +0.000 A 
ATOM     12  C12 UNL     1     145.760 161.788 168.504  0.00  0.00    +0.000 A 
ATOM     13  C13 UNL     1     146.051 162.947 169.191  0.00  0.00    +0.000 A 
ATOM     14  C14 UNL     1     150.566 165.334 169.773  0.00  0.00    +0.000 C 
ATOM     15  C15 UNL     1     151.510 164.125 169.884  0.00  0.00    +0.000 C 
ENDROOT
BRANCH   1  20
ATOM     16  F1  UNL     1     155.292 159.508 172.674  0.00  0.00    +0.000 F 
ATOM     17  C1  UNL     1     154.205 160.022 172.028  0.00  0.00    +0.000 A 
ATOM     18  C2  UNL     1     154.177 160.166 170.678  0.00  0.00    +0.000 A 
ATOM     19  C3  UNL     1     153.073 160.680 170.071  0.00  0.00    +0.000 A 
ATOM     20  C4  UNL     1     151.920 161.091 170.759  0.00  0.00    +0.000 A 
ATOM     21  C22 UNL     1     151.984 160.932 172.123  0.00  0.00    +0.000 A 
ATOM     22  C23 UNL     1     153.114 160.402 172.760  0.00  0.00    +0.000 A 
ENDBRANCH   1  20
BRANCH   4  23
ATOM     23  C16 UNL     1     150.157 164.044 167.434  0.00  0.00    +0.000 A 
ATOM     24  C17 UNL     1     151.187 163.359 166.827  0.00  0.00    +0.000 A 
ATOM     25  C18 UNL     1     151.731 163.795 165.619  0.00  0.00    +0.000 A 
ATOM     26  C19 UNL     1     151.186 164.938 165.072  0.00  0.00    +0.000 A 
ATOM     27  C20 UNL     1     150.152 165.617 165.688  0.00  0.00    +0.000 A 
ATOM     28  C21 UNL     1     149.612 165.182 166.890  0.00  0.00    +0.000 A 
ENDBRANCH   4  23
TORSDOF 2
ENDMDL
MODEL 5
REMARK VINA RESULT:      -6.7      5.273      9.237
REMARK  Name = ./3D_structures\o7_MMV1165877_3D.pdb
REMARK  2 active torsions:
REMARK  status: ('A' for Active; 'I' for Inactive)
REMARK    1  A    between atoms: C4_5  and  C5_6
REMARK    2  A    between atoms: C6_9  and  C16_21
REMARK                            x       y       z     vdW  Elec       q    Type
REMARK                         _______ _______ _______ _____ _____    ______ ____
ROOT
ATOM      1  C5  UNL     1     151.196 160.888 168.473  0.00  0.00    +0.000 C 
ATOM      2  O1  UNL     1     149.962 160.551 168.371  0.00  0.00    +0.000 OA
ATOM      3  N1  UNL     1     151.446 162.268 168.444  0.00  0.00    +0.000 N 
ATOM      4  C6  UNL     1     150.513 163.365 168.231  0.00  0.00    +0.000 C 
ATOM      5  N2  UNL     1     150.883 164.155 169.395  0.00  0.00    +0.000 N 
ATOM      6  C7  UNL     1     149.720 164.406 170.132  0.00  0.00    +0.000 C 
ATOM      7  O2  UNL     1     149.644 165.092 171.207  0.00  0.00    +0.000 OA
ATOM      8  C8  UNL     1     148.611 163.745 169.455  0.00  0.00    +0.000 A 
ATOM      9  C9  UNL     1     149.103 163.117 168.334  0.00  0.00    +0.000 A 
ATOM     10  C10 UNL     1     148.155 162.431 167.561  0.00  0.00    +0.000 A 
ATOM     11  C11 UNL     1     146.823 162.360 167.858  0.00  0.00    +0.000 A 
ATOM     12  C12 UNL     1     146.374 163.003 168.991  0.00  0.00    +0.000 A 
ATOM     13  C13 UNL     1     147.255 163.696 169.793  0.00  0.00    +0.000 A 
ATOM     14  C14 UNL     1     152.333 164.301 169.272  0.00  0.00    +0.000 C 
ATOM     15  C15 UNL     1     152.726 162.919 168.725  0.00  0.00    +0.000 C 
ENDROOT
BRANCH   1  20
ATOM     16  F1  UNL     1     155.037 156.792 168.787  0.00  0.00    +0.000 F 
ATOM     17  C1  UNL     1     154.098 157.779 168.705  0.00  0.00    +0.000 A 
ATOM     18  C2  UNL     1     154.098 158.684 167.693  0.00  0.00    +0.000 A 
ATOM     19  C3  UNL     1     153.144 159.652 167.646  0.00  0.00    +0.000 A 
ATOM     20  C4  UNL     1     152.123 159.795 168.599  0.00  0.00    +0.000 A 
ATOM     21  C22 UNL     1     152.155 158.863 169.610  0.00  0.00    +0.000 A 
ATOM     22  C23 UNL     1     153.131 157.860 169.669  0.00  0.00    +0.000 A 
ENDBRANCH   1  20
BRANCH   4  23
ATOM     23  C16 UNL     1     150.883 164.129 166.998  0.00  0.00    +0.000 A 
ATOM     24  C17 UNL     1     151.433 163.455 165.930  0.00  0.00    +0.000 A 
ATOM     25  C18 UNL     1     151.786 164.126 164.759  0.00  0.00    +0.000 A 
ATOM     26  C19 UNL     1     151.554 165.485 164.731  0.00  0.00    +0.000 A 
ATOM     27  C20 UNL     1     151.001 166.151 165.807  0.00  0.00    +0.000 A 
ATOM     28  C21 UNL     1     150.651 165.483 166.972  0.00  0.00    +0.000 A 
ENDBRANCH   4  23
TORSDOF 2
ENDMDL
MODEL 6
REMARK VINA RESULT:      -6.6      2.107      4.427
REMARK  Name = ./3D_structures\o7_MMV1165877_3D.pdb
REMARK  2 active torsions:
REMARK  status: ('A' for Active; 'I' for Inactive)
REMARK    1  A    between atoms: C4_5  and  C5_6
REMARK    2  A    between atoms: C6_9  and  C16_21
REMARK                            x       y       z     vdW  Elec       q    Type
REMARK                         _______ _______ _______ _____ _____    ______ ____
ROOT
ATOM      1  C5  UNL     1     155.092 160.784 167.635  0.00  0.00    +0.000 C 
ATOM      2  O1  UNL     1     155.103 161.490 168.708  0.00  0.00    +0.000 OA
ATOM      3  N1  UNL     1     155.960 159.681 167.633  0.00  0.00    +0.000 N 
ATOM      4  C6  UNL     1     156.930 159.275 168.639  0.00  0.00    +0.000 C 
ATOM      5  N2  UNL     1     156.499 157.892 168.770  0.00  0.00    +0.000 N 
ATOM      6  C7  UNL     1     156.234 157.650 170.123  0.00  0.00    +0.000 C 
ATOM      7  O2  UNL     1     155.858 156.539 170.628  0.00  0.00    +0.000 OA
ATOM      8  C8  UNL     1     156.464 158.891 170.853  0.00  0.00    +0.000 A 
ATOM      9  C9  UNL     1     156.863 159.852 169.952  0.00  0.00    +0.000 A 
ATOM     10  C10 UNL     1     157.131 161.117 170.498  0.00  0.00    +0.000 A 
ATOM     11  C11 UNL     1     157.018 161.424 171.824  0.00  0.00    +0.000 A 
ATOM     12  C12 UNL     1     156.616 160.430 172.691  0.00  0.00    +0.000 A 
ATOM     13  C13 UNL     1     156.338 159.166 172.217  0.00  0.00    +0.000 A 
ATOM     14  C14 UNL     1     156.512 157.391 167.396  0.00  0.00    +0.000 C 
ATOM     15  C15 UNL     1     156.005 158.621 166.626  0.00  0.00    +0.000 C 
ENDROOT
BRANCH   1  20
ATOM     16  F1  UNL     1     151.827 162.716 163.484  0.00  0.00    +0.000 F 
ATOM     17  C1  UNL     1     152.613 162.253 164.499  0.00  0.00    +0.000 A 
ATOM     18  C2  UNL     1     153.761 162.883 164.859  0.00  0.00    +0.000 A 
ATOM     19  C3  UNL     1     154.517 162.391 165.877  0.00  0.00    +0.000 A 
ATOM     20  C4  UNL     1     154.191 161.238 166.610  0.00  0.00    +0.000 A 
ATOM     21  C22 UNL     1     153.024 160.626 166.217  0.00  0.00    +0.000 A 
ATOM     22  C23 UNL     1     152.236 161.123 165.171  0.00  0.00    +0.000 A 
ENDBRANCH   1  20
BRANCH   4  23
ATOM     23  C16 UNL     1     158.312 159.292 168.065  0.00  0.00    +0.000 A 
ATOM     24  C17 UNL     1     158.645 160.261 167.144  0.00  0.00    +0.000 A 
ATOM     25  C18 UNL     1     159.923 160.319 166.588  0.00  0.00    +0.000 A 
ATOM     26  C19 UNL     1     160.824 159.364 167.008  0.00  0.00    +0.000 A 
ATOM     27  C20 UNL     1     160.480 158.396 167.933  0.00  0.00    +0.000 A 
ATOM     28  C21 UNL     1     159.208 158.339 168.485  0.00  0.00    +0.000 A 
ENDBRANCH   4  23
TORSDOF 2
ENDMDL
MODEL 7
REMARK VINA RESULT:      -6.6      4.110      7.481
REMARK  Name = ./3D_structures\o7_MMV1165877_3D.pdb
REMARK  2 active torsions:
REMARK  status: ('A' for Active; 'I' for Inactive)
REMARK    1  A    between atoms: C4_5  and  C5_6
REMARK    2  A    between atoms: C6_9  and  C16_21
REMARK                            x       y       z     vdW  Elec       q    Type
REMARK                         _______ _______ _______ _____ _____    ______ ____
ROOT
ATOM      1  C5  UNL     1     160.314 157.925 166.628  0.00  0.00    +0.000 C 
ATOM      2  O1  UNL     1     159.440 157.932 167.568  0.00  0.00    +0.000 OA
ATOM      3  N1  UNL     1     159.814 157.661 165.344  0.00  0.00    +0.000 N 
ATOM      4  C6  UNL     1     158.460 157.311 164.941  0.00  0.00    +0.000 C 
ATOM      5  N2  UNL     1     158.308 158.314 163.898  0.00  0.00    +0.000 N 
ATOM      6  C7  UNL     1     157.149 159.048 164.172  0.00  0.00    +0.000 C 
ATOM      7  O2  UNL     1     156.676 159.998 163.462  0.00  0.00    +0.000 OA
ATOM      8  C8  UNL     1     156.578 158.535 165.411  0.00  0.00    +0.000 A 
ATOM      9  C9  UNL     1     157.379 157.512 165.864  0.00  0.00    +0.000 A 
ATOM     10  C10 UNL     1     156.963 156.902 167.057  0.00  0.00    +0.000 A 
ATOM     11  C11 UNL     1     155.848 157.262 167.759  0.00  0.00    +0.000 A 
ATOM     12  C12 UNL     1     155.074 158.292 167.269  0.00  0.00    +0.000 A 
ATOM     13  C13 UNL     1     155.429 158.932 166.100  0.00  0.00    +0.000 A 
ATOM     14  C14 UNL     1     159.478 158.107 163.043  0.00  0.00    +0.000 C 
ATOM     15  C15 UNL     1     160.556 157.777 164.089  0.00  0.00    +0.000 C 
ENDROOT
BRANCH   1  20
ATOM     16  F1  UNL     1     165.499 159.261 168.350  0.00  0.00    +0.000 F 
ATOM     17  C1  UNL     1     164.244 158.935 167.922  0.00  0.00    +0.000 A 
ATOM     18  C2  UNL     1     163.349 159.884 167.543  0.00  0.00    +0.000 A 
ATOM     19  C3  UNL     1     162.109 159.519 167.120  0.00  0.00    +0.000 A 
ATOM     20  C4  UNL     1     161.666 158.189 167.045  0.00  0.00    +0.000 A 
ATOM     21  C22 UNL     1     162.597 157.256 167.438  0.00  0.00    +0.000 A 
ATOM     22  C23 UNL     1     163.878 157.619 167.874  0.00  0.00    +0.000 A 
ENDBRANCH   1  20
BRANCH   4  23
ATOM     23  C16 UNL     1     158.441 155.955 164.307  0.00  0.00    +0.000 A 
ATOM     24  C17 UNL     1     159.198 154.945 164.857  0.00  0.00    +0.000 A 
ATOM     25  C18 UNL     1     159.205 153.665 164.304  0.00  0.00    +0.000 A 
ATOM     26  C19 UNL     1     158.420 153.470 163.187  0.00  0.00    +0.000 A 
ATOM     27  C20 UNL     1     157.663 154.490 162.643  0.00  0.00    +0.000 A 
ATOM     28  C21 UNL     1     157.657 155.763 163.195  0.00  0.00    +0.000 A 
ENDBRANCH   4  23
TORSDOF 2
ENDMDL
MODEL 8
REMARK VINA RESULT:      -6.4      3.601      6.368
REMARK  Name = ./3D_structures\o7_MMV1165877_3D.pdb
REMARK  2 active torsions:
REMARK  status: ('A' for Active; 'I' for Inactive)
REMARK    1  A    between atoms: C4_5  and  C5_6
REMARK    2  A    between atoms: C6_9  and  C16_21
REMARK                            x       y       z     vdW  Elec       q    Type
REMARK                         _______ _______ _______ _____ _____    ______ ____
ROOT
ATOM      1  C5  UNL     1     156.363 158.646 168.704  0.00  0.00    +0.000 C 
ATOM      2  O1  UNL     1     156.950 158.667 169.845  0.00  0.00    +0.000 OA
ATOM      3  N1  UNL     1     155.154 159.355 168.638  0.00  0.00    +0.000 N 
ATOM      4  C6  UNL     1     154.431 160.038 169.701  0.00  0.00    +0.000 C 
ATOM      5  N2  UNL     1     154.266 161.316 169.027  0.00  0.00    +0.000 N 
ATOM      6  C7  UNL     1     154.777 162.314 169.864  0.00  0.00    +0.000 C 
ATOM      7  O2  UNL     1     154.783 163.568 169.622  0.00  0.00    +0.000 OA
ATOM      8  C8  UNL     1     155.301 161.668 171.061  0.00  0.00    +0.000 A 
ATOM      9  C9  UNL     1     155.101 160.312 170.941  0.00  0.00    +0.000 A 
ATOM     10  C10 UNL     1     155.549 159.537 172.022  0.00  0.00    +0.000 A 
ATOM     11  C11 UNL     1     156.150 160.046 173.138  0.00  0.00    +0.000 A 
ATOM     12  C12 UNL     1     156.330 161.411 173.216  0.00  0.00    +0.000 A 
ATOM     13  C13 UNL     1     155.910 162.227 172.188  0.00  0.00    +0.000 A 
ATOM     14  C14 UNL     1     153.657 160.958 167.745  0.00  0.00    +0.000 C 
ATOM     15  C15 UNL     1     154.388 159.644 167.425  0.00  0.00    +0.000 C 
ENDROOT
BRANCH   1  20
ATOM     16  F1  UNL     1     159.299 155.809 164.837  0.00  0.00    +0.000 F 
ATOM     17  C1  UNL     1     158.583 156.504 165.768  0.00  0.00    +0.000 A 
ATOM     18  C2  UNL     1     159.125 157.539 166.461  0.00  0.00    +0.000 A 
ATOM     19  C3  UNL     1     158.377 158.208 167.379  0.00  0.00    +0.000 A 
ATOM     20  C4  UNL     1     157.040 157.899 167.678  0.00  0.00    +0.000 A 
ATOM     21  C22 UNL     1     156.526 156.846 166.959  0.00  0.00    +0.000 A 
ATOM     22  C23 UNL     1     157.284 156.149 166.010  0.00  0.00    +0.000 A 
ENDBRANCH   1  20
BRANCH   4  23
ATOM     23  C16 UNL     1     153.081 159.420 169.892  0.00  0.00    +0.000 A 
ATOM     24  C17 UNL     1     152.948 158.053 169.791  0.00  0.00    +0.000 A 
ATOM     25  C18 UNL     1     151.711 157.434 169.968  0.00  0.00    +0.000 A 
ATOM     26  C19 UNL     1     150.641 158.258 170.247  0.00  0.00    +0.000 A 
ATOM     27  C20 UNL     1     150.786 159.629 170.346  0.00  0.00    +0.000 A 
ATOM     28  C21 UNL     1     152.017 160.243 170.170  0.00  0.00    +0.000 A 
ENDBRANCH   4  23
TORSDOF 2
ENDMDL
MODEL 9
REMARK VINA RESULT:      -6.3     15.631     18.759
REMARK  Name = ./3D_structures\o7_MMV1165877_3D.pdb
REMARK  2 active torsions:
REMARK  status: ('A' for Active; 'I' for Inactive)
REMARK    1  A    between atoms: C4_5  and  C5_6
REMARK    2  A    between atoms: C6_9  and  C16_21
REMARK                            x       y       z     vdW  Elec       q    Type
REMARK                         _______ _______ _______ _____ _____    ______ ____
ROOT
ATOM      1  C5  UNL     1     165.151 143.178 169.345  0.00  0.00    +0.000 C 
ATOM      2  O1  UNL     1     164.738 142.911 170.531  0.00  0.00    +0.000 OA
ATOM      3  N1  UNL     1     164.286 143.967 168.571  0.00  0.00    +0.000 N 
ATOM      4  C6  UNL     1     162.952 144.453 168.893  0.00  0.00    +0.000 C 
ATOM      5  N2  UNL     1     163.181 145.855 168.580  0.00  0.00    +0.000 N 
ATOM      6  C7  UNL     1     162.826 146.610 169.702  0.00  0.00    +0.000 C 
ATOM      7  O2  UNL     1     162.866 147.884 169.795  0.00  0.00    +0.000 OA
ATOM      8  C8  UNL     1     162.401 145.686 170.747  0.00  0.00    +0.000 A 
ATOM      9  C9  UNL     1     162.498 144.405 170.254  0.00  0.00    +0.000 A 
ATOM     10  C10 UNL     1     162.119 143.387 171.142  0.00  0.00    +0.000 A 
ATOM     11  C11 UNL     1     161.679 143.599 172.417  0.00  0.00    +0.000 A 
ATOM     12  C12 UNL     1     161.599 144.899 172.870  0.00  0.00    +0.000 A 
ATOM     13  C13 UNL     1     161.956 145.945 172.046  0.00  0.00    +0.000 A 
ATOM     14  C14 UNL     1     163.716 145.825 167.218  0.00  0.00    +0.000 C 
ATOM     15  C15 UNL     1     164.593 144.563 167.271  0.00  0.00    +0.000 C 
ENDROOT
BRANCH   1  20
ATOM     16  F1  UNL     1     170.263 141.071 168.319  0.00  0.00    +0.000 F 
ATOM     17  C1  UNL     1     169.024 141.590 168.560  0.00  0.00    +0.000 A 
ATOM     18  C2  UNL     1     168.806 142.485 169.559  0.00  0.00    +0.000 A 
ATOM     19  C3  UNL     1     167.556 142.981 169.767  0.00  0.00    +0.000 A 
ATOM     20  C4  UNL     1     166.434 142.625 169.002  0.00  0.00    +0.000 A 
ATOM     21  C22 UNL     1     166.692 141.717 168.002  0.00  0.00    +0.000 A 
ATOM     22  C23 UNL     1     167.974 141.199 167.777  0.00  0.00    +0.000 A 
ENDBRANCH   1  20
BRANCH   4  23
ATOM     23  C16 UNL     1     161.951 143.904 167.925  0.00  0.00    +0.000 A 
ATOM     24  C17 UNL     1     162.115 142.624 167.443  0.00  0.00    +0.000 A 
ATOM     25  C18 UNL     1     161.203 142.069 166.545  0.00  0.00    +0.000 A 
ATOM     26  C19 UNL     1     160.141 142.865 166.171  0.00  0.00    +0.000 A 
ATOM     27  C20 UNL     1     159.986 144.148 166.660  0.00  0.00    +0.000 A 
ATOM     28  C21 UNL     1     160.894 144.699 167.554  0.00  0.00    +0.000 A 
ENDBRANCH   4  23
TORSDOF 2
ENDMDL
